@<TRIPOS>MOLECULE
*****
 17 18 0 0 0
SMALL
GASTEIGER

@<TRIPOS>ATOM
      1 C          63.8012   83.1655   11.9880 C.2     1  UNL1        0.1223
      2 C          64.1640   83.1000   10.5340 C.2     1  UNL1        0.0343
      3 C          63.5878   84.0959    9.5716 C.2     1  UNL1        0.0232
      4 C          62.6488   85.1573   10.0631 C.2     1  UNL1        0.0975
      5 N          61.9290   86.2667    9.3553 N.2     1  UNL1       -0.2200
      6 C          61.1212   87.0179   10.3718 C.2     1  UNL1        0.1898
      7 N          61.3419   86.3728   11.7079 N.2     1  UNL1       -0.2236
      8 C          62.2860   85.2228   11.5171 C.2     1  UNL1        0.0863
      9 C          62.8622   84.2270   12.4795 C.3     1  UNL1        0.1112
     10 C          63.5432   81.0175   13.4265 C.3     1  UNL1        0.2520
     11 O          64.3773   82.1697   12.9504 O.2     1  UNL1       -0.4753
     12 S          60.2465   88.2058   10.0999 S.3     1  UNL1       -0.0756
     13 C          60.2556   88.8494    8.7451 C.3     1  UNL1        0.0677
     14 C          59.4094   88.2868    7.6417 C.3     1  UNL1        0.0438
     15 C          58.8225   86.9126    7.7730 C.3     1  UNL1        0.1381
     16 O          59.6349   85.7106    7.3923 O.3     1  UNL1       -0.3820
     17 H          59.8045   85.7242    6.4373 H       1  UNL1        0.2104
@<TRIPOS>BOND
     1    10    11    1
     2    11     1    1
     3     1     2    2
     4     2     3    1
     5     3     4    2
     6     4     5    1
     7     5     6    2
     8     6    12    1
     9    12    13    1
    10    13    14    1
    11    14    15    1
    12    15    16    1
    13     6     7    1
    14     7     8    2
    15     8     9    1
    16     9     1    1
    17     8     4    1
    18    16    17    1
@<TRIPOS>MOLECULE
*****
 17 18 0 0 0
SMALL
GASTEIGER

@<TRIPOS>ATOM
      1 C          61.3243   86.3917    8.9491 C.2     1  UNL1        0.1223
      2 C          62.3506   85.5271    8.2789 C.2     1  UNL1        0.0343
      3 C          63.2382   84.6415    9.1021 C.2     1  UNL1        0.0232
      4 C          63.0996   84.6204   10.5955 C.2     1  UNL1        0.0975
      5 N          63.8280   83.8553   11.6604 N.2     1  UNL1       -0.2200
      6 C          63.2520   84.2471   12.9889 C.2     1  UNL1        0.1898
      7 N          62.1675   85.2543   12.7449 N.2     1  UNL1       -0.2236
      8 C          62.0734   85.4850   11.2657 C.2     1  UNL1        0.0863
      9 C          61.1857   86.3707   10.4425 C.3     1  UNL1        0.1112
     10 C          59.0453   86.8344    7.7830 C.3     1  UNL1        0.2520
     11 O          60.4367   87.2774    8.1259 O.2     1  UNL1       -0.4753
     12 S          63.6845   83.7235   14.3264 S.3     1  UNL1       -0.0756
     13 C          63.0901   84.2904   15.5816 C.3     1  UNL1        0.0677
     14 C          63.6338   85.5627   16.1607 C.3     1  UNL1        0.0438
     15 C          62.8598   86.2981   17.2144 C.3     1  UNL1        0.1381
     16 O          61.3601   86.2847   17.1897 O.3     1  UNL1       -0.3820
     17 H          61.0455   86.7530   16.4007 H       1  UNL1        0.2104
@<TRIPOS>BOND
     1    10    11    1
     2    11     1    1
     3     1     2    2
     4     2     3    1
     5     3     4    2
     6     4     5    1
     7     5     6    2
     8     6    12    1
     9    12    13    1
    10    13    14    1
    11    14    15    1
    12    15    16    1
    13     6     7    1
    14     7     8    2
    15     8     9    1
    16     9     1    1
    17     8     4    1
    18    16    17    1
@<TRIPOS>MOLECULE
*****
 17 18 0 0 0
SMALL
GASTEIGER

@<TRIPOS>ATOM
      1 C          63.8327   83.0839   11.6674 C.2     1  UNL1        0.1223
      2 C          64.1759   83.0899   10.2072 C.2     1  UNL1        0.0343
      3 C          63.5922   84.1355    9.3039 C.2     1  UNL1        0.0232
      4 C          62.6654   85.1751    9.8607 C.2     1  UNL1        0.0975
      5 N          61.9420   86.3219    9.2193 N.2     1  UNL1       -0.2200
      6 C          61.1518   87.0248   10.2831 C.2     1  UNL1        0.1898
      7 N          61.3867   86.3123   11.5819 N.2     1  UNL1       -0.2236
      8 C          62.3222   85.1691   11.3209 C.2     1  UNL1        0.0863
      9 C          62.9059   84.1235   12.2242 C.3     1  UNL1        0.1112
     10 C          63.5334   81.3009   13.5332 C.3     1  UNL1        0.2520
     11 O          64.4164   82.0382   12.5707 O.2     1  UNL1       -0.4753
     12 S          60.2796   88.2287   10.0830 S.3     1  UNL1       -0.0756
     13 C          60.7762   89.5883   10.4767 C.3     1  UNL1        0.0677
     14 C          62.2503   89.8560   10.5503 C.3     1  UNL1        0.0438
     15 C          62.9539   89.8202   11.8745 C.3     1  UNL1        0.1381
     16 O          63.2629   88.5040   12.5242 O.3     1  UNL1       -0.3820
     17 H          62.4349   88.0616   12.7683 H       1  UNL1        0.2104
@<TRIPOS>BOND
     1    10    11    1
     2    11     1    1
     3     1     2    2
     4     2     3    1
     5     3     4    2
     6     4     5    1
     7     5     6    2
     8     6    12    1
     9    12    13    1
    10    13    14    1
    11    14    15    1
    12    15    16    1
    13     6     7    1
    14     7     8    2
    15     8     9    1
    16     9     1    1
    17     8     4    1
    18    16    17    1
@<TRIPOS>MOLECULE
*****
 17 18 0 0 0
SMALL
GASTEIGER

@<TRIPOS>ATOM
      1 C          63.6673   83.5717   12.0970 C.2     1  UNL1        0.1223
      2 C          64.0827   83.2773   10.6861 C.2     1  UNL1        0.0343
      3 C          63.5704   84.1264    9.5607 C.2     1  UNL1        0.0232
      4 C          62.6426   85.2699    9.8462 C.2     1  UNL1        0.0975
      5 N          61.9802   86.2730    8.9490 N.2     1  UNL1       -0.2200
      6 C          61.1554   87.1875    9.8054 C.2     1  UNL1        0.1898
      7 N          61.3080   86.7495   11.2319 N.2     1  UNL1       -0.2236
      8 C          62.2272   85.5643   11.2571 C.2     1  UNL1        0.0863
      9 C          62.7395   84.7152   12.3825 C.3     1  UNL1        0.1112
     10 C          63.8027   83.0462   14.6377 C.3     1  UNL1        0.2520
     11 O          64.1796   82.7226   13.2224 O.2     1  UNL1       -0.4753
     12 S          60.3239   88.3380    9.3205 S.3     1  UNL1       -0.0756
     13 C          60.6010   89.7257    9.8179 C.3     1  UNL1        0.0677
     14 C          59.7582   90.3128   10.9111 C.3     1  UNL1        0.0438
     15 C          59.7968   89.7197   12.2883 C.3     1  UNL1        0.1381
     16 O          58.9627   88.5153   12.6099 O.3     1  UNL1       -0.3820
     17 H          58.0229   88.7503   12.5607 H       1  UNL1        0.2104
@<TRIPOS>BOND
     1    10    11    1
     2    11     1    1
     3     1     2    2
     4     2     3    1
     5     3     4    2
     6     4     5    1
     7     5     6    2
     8     6    12    1
     9    12    13    1
    10    13    14    1
    11    14    15    1
    12    15    16    1
    13     6     7    1
    14     7     8    2
    15     8     9    1
    16     9     1    1
    17     8     4    1
    18    16    17    1
@<TRIPOS>MOLECULE
*****
 17 18 0 0 0
SMALL
GASTEIGER

@<TRIPOS>ATOM
      1 C          61.2833   86.4957    8.9801 C.2     1  UNL1        0.1223
      2 C          62.2711   85.6196    8.2684 C.2     1  UNL1        0.0343
      3 C          63.1574   84.6978    9.0525 C.2     1  UNL1        0.0232
      4 C          63.0558   84.6521   10.5484 C.2     1  UNL1        0.0975
      5 N          63.7919   83.8502   11.5804 N.2     1  UNL1       -0.2200
      6 C          63.2590   84.2307   12.9299 C.2     1  UNL1        0.1898
      7 N          62.1935   85.2678   12.7320 N.2     1  UNL1       -0.2236
      8 C          62.0680   85.5283   11.2600 C.2     1  UNL1        0.0863
      9 C          61.1817   86.4501   10.4759 C.3     1  UNL1        0.1112
     10 C          59.0551   86.9442    7.7215 C.3     1  UNL1        0.2520
     11 O          60.3970   87.4175    8.1960 O.2     1  UNL1       -0.4753
     12 S          63.7120   83.6721   14.2463 S.3     1  UNL1       -0.0756
     13 C          62.8477   82.6918   14.9824 C.3     1  UNL1        0.0677
     14 C          61.9197   81.7914   14.2221 C.3     1  UNL1        0.0438
     15 C          62.4709   80.6437   13.4290 C.3     1  UNL1        0.1381
     16 O          62.8873   80.8490   12.0028 O.3     1  UNL1       -0.3820
     17 H          62.1075   81.0581   11.4651 H       1  UNL1        0.2104
@<TRIPOS>BOND
     1    10    11    1
     2    11     1    1
     3     1     2    2
     4     2     3    1
     5     3     4    2
     6     4     5    1
     7     5     6    2
     8     6    12    1
     9    12    13    1
    10    13    14    1
    11    14    15    1
    12    15    16    1
    13     6     7    1
    14     7     8    2
    15     8     9    1
    16     9     1    1
    17     8     4    1
    18    16    17    1
@<TRIPOS>MOLECULE
*****
 17 18 0 0 0
SMALL
GASTEIGER

@<TRIPOS>ATOM
      1 C          65.4717   91.8815   13.0297 C.2     1  UNL1        0.1223
      2 C          65.1301   90.8816   14.0944 C.2     1  UNL1        0.0343
      3 C          63.9788   89.9405   13.8979 C.2     1  UNL1        0.0232
      4 C          63.1690   89.9992   12.6366 C.2     1  UNL1        0.0975
      5 N          61.9866   89.2057   12.1652 N.2     1  UNL1       -0.2200
      6 C          61.5973   89.7151   10.8091 C.2     1  UNL1        0.1898
      7 N          62.5392   90.8235   10.4424 N.2     1  UNL1       -0.2236
      8 C          63.5105   90.9990   11.5720 C.2     1  UNL1        0.0863
      9 C          64.6619   91.9402   11.7685 C.3     1  UNL1        0.1112
     10 C          66.8121   93.5112   14.5453 C.3     1  UNL1        0.2520
     11 O          66.6230   92.8226   13.2262 O.2     1  UNL1       -0.4753
     12 S          60.4650   89.2056    9.9674 S.3     1  UNL1       -0.0756
     13 C          60.1840   87.7338    9.8999 C.3     1  UNL1        0.0677
     14 C          60.7069   86.9223    8.7519 C.3     1  UNL1        0.0438
     15 C          59.7509   86.2596    7.8048 C.3     1  UNL1        0.1381
     16 O          58.3156   86.6933    7.7624 O.3     1  UNL1       -0.3820
     17 H          57.8869   86.4753    8.6048 H       1  UNL1        0.2104
@<TRIPOS>BOND
     1    10    11    1
     2    11     1    1
     3     1     2    2
     4     2     3    1
     5     3     4    2
     6     4     5    1
     7     5     6    2
     8     6    12    1
     9    12    13    1
    10    13    14    1
    11    14    15    1
    12    15    16    1
    13     6     7    1
    14     7     8    2
    15     8     9    1
    16     9     1    1
    17     8     4    1
    18    16    17    1
@<TRIPOS>MOLECULE
*****
 17 18 0 0 0
SMALL
GASTEIGER

@<TRIPOS>ATOM
      1 C          63.3949   82.3652   13.7748 C.2     1  UNL1        0.1223
      2 C          64.0903   83.2796   14.7393 C.2     1  UNL1        0.0343
      3 C          64.0908   84.7606   14.5013 C.2     1  UNL1        0.0232
      4 C          63.3959   85.3272   13.2988 C.2     1  UNL1        0.0975
      5 N          63.2295   86.7341   12.8059 N.2     1  UNL1       -0.2200
      6 C          62.4312   86.6892   11.5367 C.2     1  UNL1        0.1898
      7 N          62.1043   85.2546   11.2452 N.2     1  UNL1       -0.2236
      8 C          62.7005   84.4128   12.3343 C.2     1  UNL1        0.0863
      9 C          62.7000   82.9318   12.5723 C.3     1  UNL1        0.1112
     10 C          62.2818   80.0376   13.4695 C.3     1  UNL1        0.2520
     11 O          63.3945   80.8842   14.0128 O.2     1  UNL1       -0.4753
     12 S          62.0302   87.8714   10.7050 S.3     1  UNL1       -0.0756
     13 C          61.4046   87.6631    9.3577 C.3     1  UNL1        0.0677
     14 C          59.9153   87.5341    9.2343 C.3     1  UNL1        0.0438
     15 C          59.2756   87.4968    7.8780 C.3     1  UNL1        0.1381
     16 O          58.2834   86.4220    7.5461 O.3     1  UNL1       -0.3820
     17 H          58.7298   85.5609    7.5387 H       1  UNL1        0.2104
@<TRIPOS>BOND
     1    10    11    1
     2    11     1    1
     3     1     2    2
     4     2     3    1
     5     3     4    2
     6     4     5    1
     7     5     6    2
     8     6    12    1
     9    12    13    1
    10    13    14    1
    11    14    15    1
    12    15    16    1
    13     6     7    1
    14     7     8    2
    15     8     9    1
    16     9     1    1
    17     8     4    1
    18    16    17    1
@<TRIPOS>MOLECULE
*****
 17 18 0 0 0
SMALL
GASTEIGER

@<TRIPOS>ATOM
      1 C          63.0930   81.2797   11.3449 C.2     1  UNL1        0.1223
      2 C          62.5939   80.4889   12.5177 C.2     1  UNL1        0.0343
      3 C          62.5560   81.1126   13.8814 C.2     1  UNL1        0.0232
      4 C          63.0170   82.5271   14.0722 C.2     1  UNL1        0.0975
      5 N          63.0951   83.4019   15.2882 N.2     1  UNL1       -0.2200
      6 C          63.6424   84.7335   14.8669 C.2     1  UNL1        0.1898
      7 N          63.9025   84.6816   13.3906 N.2     1  UNL1       -0.2236
      8 C          63.5160   83.3179   12.8994 C.2     1  UNL1        0.0863
      9 C          63.5540   82.6942   11.5358 C.3     1  UNL1        0.1112
     10 C          62.8288   79.1962    9.8156 C.3     1  UNL1        0.2520
     11 O          63.1309   80.6560    9.9813 O.2     1  UNL1       -0.4753
     12 S          63.8866   85.9103   15.7644 S.3     1  UNL1       -0.0756
     13 C          63.1676   86.0147   17.0767 C.3     1  UNL1        0.0677
     14 C          62.6786   87.3478   17.5601 C.3     1  UNL1        0.0438
     15 C          63.1569   88.6066   16.8994 C.3     1  UNL1        0.1381
     16 O          62.2200   89.4080   16.0451 O.3     1  UNL1       -0.3820
     17 H          61.9792   88.8935   15.2589 H       1  UNL1        0.2104
@<TRIPOS>BOND
     1    10    11    1
     2    11     1    1
     3     1     2    2
     4     2     3    1
     5     3     4    2
     6     4     5    1
     7     5     6    2
     8     6    12    1
     9    12    13    1
    10    13    14    1
    11    14    15    1
    12    15    16    1
    13     6     7    1
    14     7     8    2
    15     8     9    1
    16     9     1    1
    17     8     4    1
    18    16    17    1
@<TRIPOS>MOLECULE
*****
 17 18 0 0 0
SMALL
GASTEIGER

@<TRIPOS>ATOM
      1 C          60.0182   88.0645    8.6445 C.2     1  UNL1        0.1223
      2 C          60.5934   89.2329    9.3888 C.2     1  UNL1        0.0343
      3 C          61.5148   89.0025   10.5499 C.2     1  UNL1        0.0232
      4 C          61.8610   87.6038   10.9665 C.2     1  UNL1        0.0975
      5 N          62.7347   87.0702   12.0628 N.2     1  UNL1       -0.2200
      6 C          62.6996   85.5721   11.9960 C.2     1  UNL1        0.1898
      7 N          61.8041   85.1798   10.8584 N.2     1  UNL1       -0.2236
      8 C          61.2858   86.4354   10.2222 C.2     1  UNL1        0.0863
      9 C          60.3645   86.6658    9.0611 C.3     1  UNL1        0.1112
     10 C          59.3073   89.4749    6.5816 C.3     1  UNL1        0.2520
     11 O          59.0969   88.2949    7.4834 O.2     1  UNL1       -0.4753
     12 S          63.4315   84.6315   12.9069 S.3     1  UNL1       -0.0756
     13 C          64.0857   83.4030   12.3478 C.3     1  UNL1        0.0677
     14 C          63.5566   82.0447   12.7012 C.3     1  UNL1        0.0438
     15 C          62.2450   81.9136   13.4172 C.3     1  UNL1        0.1381
     16 O          62.2152   81.7938   14.9120 O.3     1  UNL1       -0.3820
     17 H          62.6293   80.9578   15.1777 H       1  UNL1        0.2104
@<TRIPOS>BOND
     1    10    11    1
     2    11     1    1
     3     1     2    2
     4     2     3    1
     5     3     4    2
     6     4     5    1
     7     5     6    2
     8     6    12    1
     9    12    13    1
    10    13    14    1
    11    14    15    1
    12    15    16    1
    13     6     7    1
    14     7     8    2
    15     8     9    1
    16     9     1    1
    17     8     4    1
    18    16    17    1
