@<TRIPOS>MOLECULE
*****
 30 34 0 0 0
SMALL
GASTEIGER

@<TRIPOS>ATOM
      1 C          63.0658   84.5881   13.7804 C.2     1  UNL1        0.3749
      2 N          63.3751   85.2549   15.0879 N.2     1  UNL1       -0.0308
      3 C          63.6797   86.6975   14.8119 C.2     1  UNL1        0.2321
      4 C          64.0516   87.8355   15.7155 C.2     1  UNL1        0.0500
      5 C          64.3026   89.1983   15.1410 C.2     1  UNL1        0.0046
      6 C          64.1815   89.4230   13.6629 C.2     1  UNL1        0.0400
      7 C          63.8096   88.2849   12.7593 C.3     1  UNL1        0.1086
      8 C          63.5587   86.9223   13.3337 C.2     1  UNL1        0.2179
      9 N          63.1793   85.6185   12.6962 N.2     1  UNL1       -0.0347
     10 C          64.4106   82.9770   11.6366 C.3     1  UNL1        0.0313
     11 C          63.3786   82.3387   12.5184 C.ar    1  UNL1       -0.0144
     12 C          63.0190   80.8949   12.3283 C.ar    1  UNL1       -0.0040
     13 C          61.9871   80.2567   13.2101 C.ar    1  UNL1       -0.0003
     14 C          61.3147   81.0622   14.2820 C.ar    1  UNL1        0.0002
     15 C          61.6742   82.5060   14.4721 C.ar    1  UNL1        0.0074
     16 C          62.7062   83.1442   13.5903 C.ar    1  UNL1        0.0845
     17 C          64.4325   90.7857   13.0884 C.2     1  UNL1        0.2470
     18 O          63.2781   91.6867   12.7631 O.2     1  UNL1       -0.2701
     19 N          65.8377   91.2475   12.8393 N.am    1  UNL1       -0.2661
     20 H          66.5953   90.6562   13.0528 H       1  UNL1        0.1566
     21 C          66.0886   92.6102   12.2648 C.ar    1  UNL1        0.1343
     22 C          66.0655   93.8160   13.1568 C.ar    1  UNL1        0.0345
     23 C          66.3163   95.1787   12.5824 C.ar    1  UNL1        0.0044
     24 C          66.5903   95.3358   11.1159 C.ar    1  UNL1        0.0178
     25 C          66.8412   96.6985   10.5415 C.ar    1  UNL1        0.0015
     26 C          67.1152   96.8554    9.0752 C.ar    1  UNL1        0.0001
     27 C          67.1383   95.6497    8.1832 C.ar    1  UNL1        0.0015
     28 C          66.8874   94.2869    8.7576 C.ar    1  UNL1        0.0191
     29 C          66.6134   94.1300   10.2240 C.ar    1  UNL1        0.0827
     30 N          66.3626   92.7672   10.7985 N.ar    1  UNL1       -0.2305
@<TRIPOS>BOND
     1    10    11    1
     2    11    12   ar
     3    12    13   ar
     4    13    14   ar
     5    14    15   ar
     6    15    16   ar
     7    16     1    1
     8     1     2    2
     9     2     3    1
    10     3     4    2
    11     4     5    1
    12     5     6    2
    13     6    17    1
    14    17    18    2
    15    17    19   am
    16    19    21    1
    17    21    22   ar
    18    22    23   ar
    19    23    24   ar
    20    24    25   ar
    21    25    26   ar
    22    26    27   ar
    23    27    28   ar
    24    28    29   ar
    25    29    30   ar
    26     6     7    1
    27     7     8    1
    28     8     9    2
    29    16    11   ar
    30     9     1    1
    31     8     3    1
    32    30    21   ar
    33    29    24   ar
    34    19    20    1
@<TRIPOS>MOLECULE
*****
 30 34 0 0 0
SMALL
GASTEIGER

@<TRIPOS>ATOM
      1 C          60.0704   92.9785    2.9365 C.2     1  UNL1        0.3749
      2 N          58.6609   92.7304    3.3854 N.2     1  UNL1       -0.0308
      3 C          58.6926   91.6743    4.4501 C.2     1  UNL1        0.2321
      4 C          57.6047   91.0288    5.2563 C.2     1  UNL1        0.0500
      5 C          57.9461   89.9786    6.2715 C.2     1  UNL1        0.0046
      6 C          59.3753   89.5740    6.4806 C.2     1  UNL1        0.0400
      7 C          60.4631   90.2196    5.6745 C.3     1  UNL1        0.1086
      8 C          60.1218   91.2697    4.6592 C.2     1  UNL1        0.2179
      9 N          60.9733   92.0757    3.7237 N.2     1  UNL1       -0.0347
     10 C          60.9294   91.9967    0.2349 C.3     1  UNL1        0.0313
     11 C          60.9309   93.4666    0.5341 C.ar    1  UNL1       -0.0144
     12 C          61.3620   94.4455   -0.5175 C.ar    1  UNL1       -0.0040
     13 C          61.3635   95.9153   -0.2183 C.ar    1  UNL1       -0.0003
     14 C          60.9341   96.4063    1.1324 C.ar    1  UNL1        0.0002
     15 C          60.5030   95.4273    2.1840 C.ar    1  UNL1        0.0074
     16 C          60.5015   93.9575    1.8848 C.ar    1  UNL1        0.0845
     17 C          59.7166   88.5239    7.4959 C.2     1  UNL1        0.2470
     18 O          58.7521   87.4097    7.7758 O.2     1  UNL1       -0.2701
     19 N          61.0224   88.5880    8.2312 N.am    1  UNL1       -0.2661
     20 H          61.6554   89.3193    8.0476 H       1  UNL1        0.1566
     21 C          61.3637   87.5378    9.2465 C.ar    1  UNL1        0.1343
     22 C          60.8066   87.6291   10.6363 C.ar    1  UNL1        0.0345
     23 C          61.1478   86.5790   11.6515 C.ar    1  UNL1        0.0044
     24 C          62.0462   85.4375   11.2771 C.ar    1  UNL1        0.0178
     25 C          62.3874   84.3874   12.2923 C.ar    1  UNL1        0.0015
     26 C          63.2857   83.2461   11.9179 C.ar    1  UNL1        0.0001
     27 C          63.8428   83.1548   10.5281 C.ar    1  UNL1        0.0015
     28 C          63.5015   84.2049    9.5129 C.ar    1  UNL1        0.0191
     29 C          62.6032   85.3463    9.8873 C.ar    1  UNL1        0.0827
     30 N          62.2620   86.3965    8.8721 N.ar    1  UNL1       -0.2305
@<TRIPOS>BOND
     1    10    11    1
     2    11    12   ar
     3    12    13   ar
     4    13    14   ar
     5    14    15   ar
     6    15    16   ar
     7    16     1    1
     8     1     2    2
     9     2     3    1
    10     3     4    2
    11     4     5    1
    12     5     6    2
    13     6    17    1
    14    17    18    2
    15    17    19   am
    16    19    21    1
    17    21    22   ar
    18    22    23   ar
    19    23    24   ar
    20    24    25   ar
    21    25    26   ar
    22    26    27   ar
    23    27    28   ar
    24    28    29   ar
    25    29    30   ar
    26     6     7    1
    27     7     8    1
    28     8     9    2
    29    16    11   ar
    30     9     1    1
    31     8     3    1
    32    30    21   ar
    33    29    24   ar
    34    19    20    1
@<TRIPOS>MOLECULE
*****
 30 34 0 0 0
SMALL
GASTEIGER

@<TRIPOS>ATOM
      1 C          72.1701   80.0210    9.5379 C.2     1  UNL1        0.3749
      2 N          72.4803   80.7398   10.8173 N.2     1  UNL1       -0.0308
      3 C          72.4681   79.7332   11.9293 C.2     1  UNL1        0.2321
      4 C          72.7052   79.8643   13.4046 C.2     1  UNL1        0.0500
      5 C          72.6246   78.6544   14.2877 C.2     1  UNL1        0.0046
      6 C          72.3068   77.3135   13.6954 C.2     1  UNL1        0.0400
      7 C          72.0697   77.1823   12.2201 C.3     1  UNL1        0.1086
      8 C          72.1503   78.3921   11.3370 C.2     1  UNL1        0.2179
      9 N          71.9661   78.5701    9.8591 N.2     1  UNL1       -0.0347
     10 C          72.0159   83.0042    9.2601 C.3     1  UNL1        0.0313
     11 C          72.0026   82.1354    8.0373 C.ar    1  UNL1       -0.0144
     12 C          71.9122   82.7582    6.6758 C.ar    1  UNL1       -0.0040
     13 C          71.8989   81.8894    5.4531 C.ar    1  UNL1       -0.0003
     14 C          71.9760   80.3978    5.5920 C.ar    1  UNL1        0.0002
     15 C          72.0664   79.7750    6.9535 C.ar    1  UNL1        0.0074
     16 C          72.0797   80.6438    8.1762 C.ar    1  UNL1        0.0845
     17 C          72.2262   76.1037   14.5785 C.2     1  UNL1        0.2470
     18 O          73.0901   76.0086   15.8011 O.2     1  UNL1       -0.2701
     19 N          71.2818   74.9889   14.2389 N.am    1  UNL1       -0.2661
     20 H          70.7148   75.0512   13.4365 H       1  UNL1        0.1566
     21 C          71.2012   73.7790   15.1221 C.ar    1  UNL1        0.1343
     22 C          70.4758   73.8543   16.4328 C.ar    1  UNL1        0.0345
     23 C          70.3952   72.6445   17.3160 C.ar    1  UNL1        0.0044
     24 C          71.0401   71.3594   16.8883 C.ar    1  UNL1        0.0178
     25 C          70.9595   70.1496   17.7714 C.ar    1  UNL1        0.0015
     26 C          71.6043   68.8646   17.3438 C.ar    1  UNL1        0.0001
     27 C          72.3297   68.7894   16.0330 C.ar    1  UNL1        0.0015
     28 C          72.4103   69.9992   15.1499 C.ar    1  UNL1        0.0191
     29 C          71.7655   71.2842   15.5775 C.ar    1  UNL1        0.0827
     30 N          71.8460   72.4940   14.6944 N.ar    1  UNL1       -0.2305
@<TRIPOS>BOND
     1    10    11    1
     2    11    12   ar
     3    12    13   ar
     4    13    14   ar
     5    14    15   ar
     6    15    16   ar
     7    16     1    1
     8     1     2    2
     9     2     3    1
    10     3     4    2
    11     4     5    1
    12     5     6    2
    13     6    17    1
    14    17    18    2
    15    17    19   am
    16    19    21    1
    17    21    22   ar
    18    22    23   ar
    19    23    24   ar
    20    24    25   ar
    21    25    26   ar
    22    26    27   ar
    23    27    28   ar
    24    28    29   ar
    25    29    30   ar
    26     6     7    1
    27     7     8    1
    28     8     9    2
    29    16    11   ar
    30     9     1    1
    31     8     3    1
    32    30    21   ar
    33    29    24   ar
    34    19    20    1
@<TRIPOS>MOLECULE
*****
 30 34 0 0 0
SMALL
GASTEIGER

@<TRIPOS>ATOM
      1 C          62.0594   85.1923   11.2773 C.2     1  UNL1        0.3749
      2 N          61.3053   86.3129   11.9295 N.2     1  UNL1       -0.0308
      3 C          60.8355   87.2445   10.8518 C.2     1  UNL1        0.2321
      4 C          60.0453   88.5185   10.9005 C.2     1  UNL1        0.0500
      5 C          59.7190   89.2477    9.6309 C.2     1  UNL1        0.0046
      6 C          60.1829   88.7028    8.3126 C.2     1  UNL1        0.0400
      7 C          60.9730   87.4287    8.2639 C.3     1  UNL1        0.1086
      8 C          61.2994   86.6996    9.5335 C.2     1  UNL1        0.2179
      9 N          62.0558   85.4313    9.7965 N.2     1  UNL1       -0.0347
     10 C          63.7682   85.6732   13.6958 C.3     1  UNL1        0.0313
     11 C          63.5585   84.2762   13.1914 C.ar    1  UNL1       -0.0144
     12 C          64.2031   83.1196   13.8963 C.ar    1  UNL1       -0.0040
     13 C          63.9934   81.7227   13.3919 C.ar    1  UNL1       -0.0003
     14 C          63.1390   81.4822   12.1827 C.ar    1  UNL1        0.0002
     15 C          62.4944   82.6387   11.4778 C.ar    1  UNL1        0.0074
     16 C          62.7041   84.0357   11.9822 C.ar    1  UNL1        0.0845
     17 C          59.8565   89.4319    7.0431 C.2     1  UNL1        0.2470
     18 O          58.5648   89.1577    6.3315 O.2     1  UNL1       -0.2701
     19 N          60.8218   90.4353    6.4851 N.am    1  UNL1       -0.2661
     20 H          61.6696   90.6153    6.9521 H       1  UNL1        0.1566
     21 C          60.4954   91.1645    5.2155 C.ar    1  UNL1        0.1343
     22 C          59.0829   91.5828    4.9327 C.ar    1  UNL1        0.0345
     23 C          58.7565   92.3119    3.6632 C.ar    1  UNL1        0.0044
     24 C          59.8426   92.6228    2.6763 C.ar    1  UNL1        0.0178
     25 C          59.5161   93.3519    1.4068 C.ar    1  UNL1        0.0015
     26 C          60.6022   93.6627    0.4200 C.ar    1  UNL1        0.0001
     27 C          62.0146   93.2444    0.7027 C.ar    1  UNL1        0.0015
     28 C          62.3411   92.5153    1.9722 C.ar    1  UNL1        0.0191
     29 C          61.2550   92.2045    2.9590 C.ar    1  UNL1        0.0827
     30 N          61.5814   91.4753    4.2287 N.ar    1  UNL1       -0.2305
@<TRIPOS>BOND
     1    10    11    1
     2    11    12   ar
     3    12    13   ar
     4    13    14   ar
     5    14    15   ar
     6    15    16   ar
     7    16     1    1
     8     1     2    2
     9     2     3    1
    10     3     4    2
    11     4     5    1
    12     5     6    2
    13     6    17    1
    14    17    18    2
    15    17    19   am
    16    19    21    1
    17    21    22   ar
    18    22    23   ar
    19    23    24   ar
    20    24    25   ar
    21    25    26   ar
    22    26    27   ar
    23    27    28   ar
    24    28    29   ar
    25    29    30   ar
    26     6     7    1
    27     7     8    1
    28     8     9    2
    29    16    11   ar
    30     9     1    1
    31     8     3    1
    32    30    21   ar
    33    29    24   ar
    34    19    20    1
@<TRIPOS>MOLECULE
*****
 30 34 0 0 0
SMALL
GASTEIGER

@<TRIPOS>ATOM
      1 C          60.0109   92.8890    2.9223 C.2     1  UNL1        0.3749
      2 N          58.6152   92.5643    3.3657 N.2     1  UNL1       -0.0308
      3 C          58.7044   91.5769    4.4914 C.2     1  UNL1        0.2321
      4 C          57.6519   90.9010    5.3193 C.2     1  UNL1        0.0500
      5 C          58.0502   89.9395    6.3995 C.2     1  UNL1        0.0046
      6 C          59.5010   89.6540    6.6519 C.2     1  UNL1        0.0400
      7 C          60.5535   90.3299    5.8240 C.3     1  UNL1        0.1086
      8 C          60.1552   91.2914    4.7438 C.2     1  UNL1        0.2179
      9 N          60.9627   92.1023    3.7740 N.2     1  UNL1       -0.0347
     10 C          60.6603   91.8282    0.1923 C.3     1  UNL1        0.0313
     11 C          60.7133   93.3040    0.4556 C.ar    1  UNL1       -0.0144
     12 C          61.0910   94.2493   -0.6460 C.ar    1  UNL1       -0.0040
     13 C          61.1441   95.7250   -0.3826 C.ar    1  UNL1       -0.0003
     14 C          60.8194   96.2554    0.9824 C.ar    1  UNL1        0.0002
     15 C          60.4417   95.3101    2.0840 C.ar    1  UNL1        0.0074
     16 C          60.3887   93.8344    1.8206 C.ar    1  UNL1        0.0845
     17 C          59.8993   88.6925    7.7321 C.2     1  UNL1        0.2470
     18 O          59.0356   87.5038    8.0340 O.2     1  UNL1       -0.2701
     19 N          61.1613   88.9196    8.5104 N.am    1  UNL1       -0.2661
     20 H          61.7282   89.6998    8.3122 H       1  UNL1        0.1566
     21 C          61.5596   87.9581    9.5906 C.ar    1  UNL1        0.1343
     22 C          61.1375   86.5210    9.5086 C.ar    1  UNL1        0.0345
     23 C          61.5357   85.5595   10.5887 C.ar    1  UNL1        0.0044
     24 C          62.3561   86.0350   11.7511 C.ar    1  UNL1        0.0178
     25 C          62.7543   85.0735   12.8313 C.ar    1  UNL1        0.0015
     26 C          63.5746   85.5490   13.9935 C.ar    1  UNL1        0.0001
     27 C          63.9967   86.9861   14.0756 C.ar    1  UNL1        0.0015
     28 C          63.5985   87.9476   12.9954 C.ar    1  UNL1        0.0191
     29 C          62.7781   87.4721   11.8332 C.ar    1  UNL1        0.0827
     30 N          62.3799   88.4336   10.7529 N.ar    1  UNL1       -0.2305
@<TRIPOS>BOND
     1    10    11    1
     2    11    12   ar
     3    12    13   ar
     4    13    14   ar
     5    14    15   ar
     6    15    16   ar
     7    16     1    1
     8     1     2    2
     9     2     3    1
    10     3     4    2
    11     4     5    1
    12     5     6    2
    13     6    17    1
    14    17    18    2
    15    17    19   am
    16    19    21    1
    17    21    22   ar
    18    22    23   ar
    19    23    24   ar
    20    24    25   ar
    21    25    26   ar
    22    26    27   ar
    23    27    28   ar
    24    28    29   ar
    25    29    30   ar
    26     6     7    1
    27     7     8    1
    28     8     9    2
    29    16    11   ar
    30     9     1    1
    31     8     3    1
    32    30    21   ar
    33    29    24   ar
    34    19    20    1
@<TRIPOS>MOLECULE
*****
 30 34 0 0 0
SMALL
GASTEIGER

@<TRIPOS>ATOM
      1 C          62.2333   87.0422   11.4622 C.2     1  UNL1        0.3749
      2 N          60.9843   86.3700   10.9742 N.2     1  UNL1       -0.0308
      3 C          60.4880   87.1263    9.7777 C.2     1  UNL1        0.2321
      4 C          59.2998   86.9246    8.8847 C.2     1  UNL1        0.0500
      5 C          59.0539   87.8625    7.7402 C.2     1  UNL1        0.0046
      6 C          59.9961   89.0022    7.4888 C.2     1  UNL1        0.0400
      7 C          61.1843   89.2040    8.3818 C.3     1  UNL1        0.1086
      8 C          61.4303   88.2661    9.5262 C.2     1  UNL1        0.2179
      9 N          62.5089   88.2141   10.5673 N.2     1  UNL1       -0.0347
     10 C          62.7054   84.1268   11.9893 C.3     1  UNL1        0.0313
     11 C          63.2974   85.1595   12.9021 C.ar    1  UNL1       -0.0144
     12 C          64.1254   84.7345   14.0784 C.ar    1  UNL1       -0.0040
     13 C          64.7174   85.7671   14.9911 C.ar    1  UNL1       -0.0003
     14 C          64.4814   87.2248   14.7275 C.ar    1  UNL1        0.0002
     15 C          63.6534   87.6498   13.5513 C.ar    1  UNL1        0.0074
     16 C          63.0614   86.6172   12.6385 C.ar    1  UNL1        0.0845
     17 C          59.7501   89.9401    6.3443 C.2     1  UNL1        0.2470
     18 O          58.3457   90.2636    5.9283 O.2     1  UNL1       -0.2701
     19 N          60.9085   90.5545    5.6159 N.am    1  UNL1       -0.2661
     20 H          61.8302   90.3422    5.8889 H       1  UNL1        0.1566
     21 C          60.6625   91.4925    4.4714 C.ar    1  UNL1        0.1343
     22 C          59.2848   92.0337    4.2281 C.ar    1  UNL1        0.0345
     23 C          59.0387   92.9716    3.0837 C.ar    1  UNL1        0.0044
     24 C          60.1704   93.3683    2.1824 C.ar    1  UNL1        0.0178
     25 C          59.9243   94.3062    1.0380 C.ar    1  UNL1        0.0015
     26 C          61.0559   94.7029    0.1369 C.ar    1  UNL1        0.0001
     27 C          62.4335   94.1617    0.3802 C.ar    1  UNL1        0.0015
     28 C          62.6796   93.2238    1.5246 C.ar    1  UNL1        0.0191
     29 C          61.5480   92.8271    2.4257 C.ar    1  UNL1        0.0827
     30 N          61.7941   91.8892    3.5702 N.ar    1  UNL1       -0.2305
@<TRIPOS>BOND
     1    10    11    1
     2    11    12   ar
     3    12    13   ar
     4    13    14   ar
     5    14    15   ar
     6    15    16   ar
     7    16     1    1
     8     1     2    2
     9     2     3    1
    10     3     4    2
    11     4     5    1
    12     5     6    2
    13     6    17    1
    14    17    18    2
    15    17    19   am
    16    19    21    1
    17    21    22   ar
    18    22    23   ar
    19    23    24   ar
    20    24    25   ar
    21    25    26   ar
    22    26    27   ar
    23    27    28   ar
    24    28    29   ar
    25    29    30   ar
    26     6     7    1
    27     7     8    1
    28     8     9    2
    29    16    11   ar
    30     9     1    1
    31     8     3    1
    32    30    21   ar
    33    29    24   ar
    34    19    20    1
