@<TRIPOS>MOLECULE
*****
 26 29 0 0 0
SMALL
GASTEIGER

@<TRIPOS>ATOM
      1 C          59.7100   88.8952    7.6160 C.ar    1  UNL1        0.1718
      2 C          60.4830   89.6956    8.6219 C.ar    1  UNL1        0.0362
      3 C          61.2107   89.0004    9.7342 C.ar    1  UNL1       -0.0062
      4 C          61.1654   87.5049    9.8407 C.ar    1  UNL1        0.0630
      5 C          60.3924   86.7046    8.8347 C.ar    1  UNL1        0.0454
      6 C          59.6648   87.3997    7.7224 C.ar    1  UNL1        0.1679
      7 O          58.8918   86.5993    6.7165 O.3     1  UNL1       -0.5029
      8 C          61.8931   86.8098   10.9530 C.ar    1  UNL1        0.2260
      9 C          61.8478   85.3143   11.0594 C.ar    1  UNL1        0.0695
     10 C          62.5755   84.6191   12.1717 C.ar    1  UNL1        0.0150
     11 C          62.5302   83.1235   12.2781 C.ar    1  UNL1        0.0037
     12 C          63.2578   82.4284   13.3904 C.ar    1  UNL1        0.0398
     13 C          64.0308   83.2288   14.3963 C.ar    1  UNL1        0.1679
     14 O          64.7585   82.5337   15.5087 O.3     1  UNL1       -0.5029
     15 C          64.0761   84.7243   14.2899 C.ar    1  UNL1        0.1780
     16 C          63.3484   85.4195   13.1776 C.ar    1  UNL1        0.1068
     17 C          63.3937   86.9150   13.0712 C.ar    1  UNL1        0.2929
     18 N          62.6660   87.6101   11.9589 N.ar    1  UNL1       -0.1641
     19 C          62.7113   89.1057   11.8525 C.3     1  UNL1        0.3269
     20 C          61.9837   89.8009   10.7402 C.3     1  UNL1        0.1119
     21 H          58.8635   85.6651    6.7829 H       1  UNL1        0.2923
     22 H          64.7302   81.5995   15.5751 H       1  UNL1        0.2923
     23 C          59.7391   90.4479    5.5331 C.3     1  UNL1        0.2526
     24 O          58.9824   89.5904    6.5037 O.3     1  UNL1       -0.4684
     25 O          64.8491   85.5247   15.2959 O.3     1  UNL1       -0.4682
     26 C          64.1425   86.1410   16.4667 C.3     1  UNL1        0.2526
@<TRIPOS>UNITY_ATOM_ATTR
18 1
charge 1
@<TRIPOS>BOND
     1    23    24    1
     2    24     1    1
     3     1     2   ar
     4     2     3   ar
     5     3     4   ar
     6     4     5   ar
     7     5     6   ar
     8     6     7    1
     9     4     8    1
    10     8     9   ar
    11     9    10   ar
    12    10    11   ar
    13    11    12   ar
    14    12    13   ar
    15    13    14    1
    16    13    15   ar
    17    15    25    1
    18    25    26    1
    19    15    16   ar
    20    16    17   ar
    21    17    18   ar
    22    18    19    1
    23    19    20    1
    24     6     1   ar
    25    18     8   ar
    26    20     3    1
    27    16    10   ar
    28     7    21    1
    29    14    22    1
@<TRIPOS>MOLECULE
*****
 26 29 0 0 0
SMALL
GASTEIGER

@<TRIPOS>ATOM
      1 C          62.4451   83.0393   13.3416 C.ar    1  UNL1        0.1718
      2 C          62.0195   83.8327   12.1420 C.ar    1  UNL1        0.0362
      3 C          62.3734   85.2868   12.0404 C.ar    1  UNL1       -0.0062
      4 C          63.1529   85.9475   13.1385 C.ar    1  UNL1        0.0630
      5 C          63.5785   85.1541   14.3382 C.ar    1  UNL1        0.0454
      6 C          63.2246   83.6999   14.4398 C.ar    1  UNL1        0.1679
      7 O          63.6502   82.9065   15.6395 O.3     1  UNL1       -0.5029
      8 C          63.5068   87.4016   13.0369 C.ar    1  UNL1        0.2260
      9 C          64.2863   88.0623   14.1350 C.ar    1  UNL1        0.0695
     10 C          64.6401   89.5164   14.0334 C.ar    1  UNL1        0.0150
     11 C          65.4197   90.1771   15.1316 C.ar    1  UNL1        0.0037
     12 C          65.7735   91.6312   15.0300 C.ar    1  UNL1        0.0398
     13 C          65.3479   92.4246   13.8302 C.ar    1  UNL1        0.1679
     14 O          65.7018   93.8787   13.7287 O.3     1  UNL1       -0.5029
     15 C          64.5685   91.7639   12.7321 C.ar    1  UNL1        0.1780
     16 C          64.2146   90.3098   12.8337 C.ar    1  UNL1        0.1068
     17 C          63.4351   89.6491   11.7356 C.ar    1  UNL1        0.2929
     18 N          63.0812   88.1950   11.8372 N.ar    1  UNL1       -0.1641
     19 C          62.3017   87.5344   10.7390 C.3     1  UNL1        0.3269
     20 C          61.9478   86.0802   10.8406 C.3     1  UNL1        0.1119
     21 H          64.1371   83.3192   16.3255 H       1  UNL1        0.2923
     22 H          66.1887   94.2914   14.4146 H       1  UNL1        0.2923
     23 C          62.8248   80.5749   12.6119 C.3     1  UNL1        0.2526
     24 O          62.0912   81.5852   13.4432 O.3     1  UNL1       -0.4684
     25 O          64.1429   92.5574   11.5324 O.3     1  UNL1       -0.4682
     26 C          65.1439   92.9090   10.4721 C.3     1  UNL1        0.2526
@<TRIPOS>UNITY_ATOM_ATTR
18 1
charge 1
@<TRIPOS>BOND
     1    23    24    1
     2    24     1    1
     3     1     2   ar
     4     2     3   ar
     5     3     4   ar
     6     4     5   ar
     7     5     6   ar
     8     6     7    1
     9     4     8    1
    10     8     9   ar
    11     9    10   ar
    12    10    11   ar
    13    11    12   ar
    14    12    13   ar
    15    13    14    1
    16    13    15   ar
    17    15    25    1
    18    25    26    1
    19    15    16   ar
    20    16    17   ar
    21    17    18   ar
    22    18    19    1
    23    19    20    1
    24     6     1   ar
    25    18     8   ar
    26    20     3    1
    27    16    10   ar
    28     7    21    1
    29    14    22    1
@<TRIPOS>MOLECULE
*****
 26 29 0 0 0
SMALL
GASTEIGER

@<TRIPOS>ATOM
      1 C          61.6903   92.5111    2.3261 C.ar    1  UNL1        0.1718
      2 C          62.2682   92.6357    0.9476 C.ar    1  UNL1        0.0362
      3 C          61.4065   93.1038   -0.1874 C.ar    1  UNL1       -0.0062
      4 C          59.9668   93.4472    0.0561 C.ar    1  UNL1        0.0630
      5 C          59.3889   93.3225    1.4346 C.ar    1  UNL1        0.0454
      6 C          60.2506   92.8545    2.5696 C.ar    1  UNL1        0.1679
      7 O          59.6726   92.7299    3.9482 O.3     1  UNL1       -0.5029
      8 C          59.1050   93.9152   -1.0790 C.ar    1  UNL1        0.2260
      9 C          57.6653   94.2586   -0.8355 C.ar    1  UNL1        0.0695
     10 C          56.8036   94.7266   -1.9705 C.ar    1  UNL1        0.0150
     11 C          55.3638   95.0700   -1.7270 C.ar    1  UNL1        0.0037
     12 C          54.5021   95.5381   -2.8620 C.ar    1  UNL1        0.0398
     13 C          55.0801   95.6627   -4.2406 C.ar    1  UNL1        0.1679
     14 O          54.2183   96.1307   -5.3757 O.3     1  UNL1       -0.5029
     15 C          56.5197   95.3193   -4.4841 C.ar    1  UNL1        0.1780
     16 C          57.3815   94.8513   -3.3491 C.ar    1  UNL1        0.1068
     17 C          58.8212   94.5079   -3.5926 C.ar    1  UNL1        0.2929
     18 N          59.6829   94.0398   -2.4575 N.ar    1  UNL1       -0.1641
     19 C          61.1227   93.6964   -2.7011 C.3     1  UNL1        0.3269
     20 C          61.9845   93.2284   -1.5660 C.3     1  UNL1        0.1119
     21 H          58.7733   92.9444    4.1003 H       1  UNL1        0.2923
     22 H          53.3190   96.3452   -5.2235 H       1  UNL1        0.2923
     23 C          63.4732   90.8747    3.2711 C.3     1  UNL1        0.2526
     24 O          62.5521   92.0431    3.4612 O.3     1  UNL1       -0.4684
     25 O          57.0977   95.4439   -5.8626 O.3     1  UNL1       -0.4682
     26 C          56.9316   94.3264   -6.8494 C.3     1  UNL1        0.2526
@<TRIPOS>UNITY_ATOM_ATTR
18 1
charge 1
@<TRIPOS>BOND
     1    23    24    1
     2    24     1    1
     3     1     2   ar
     4     2     3   ar
     5     3     4   ar
     6     4     5   ar
     7     5     6   ar
     8     6     7    1
     9     4     8    1
    10     8     9   ar
    11     9    10   ar
    12    10    11   ar
    13    11    12   ar
    14    12    13   ar
    15    13    14    1
    16    13    15   ar
    17    15    25    1
    18    25    26    1
    19    15    16   ar
    20    16    17   ar
    21    17    18   ar
    22    18    19    1
    23    19    20    1
    24     6     1   ar
    25    18     8   ar
    26    20     3    1
    27    16    10   ar
    28     7    21    1
    29    14    22    1
@<TRIPOS>MOLECULE
*****
 26 29 0 0 0
SMALL
GASTEIGER

@<TRIPOS>ATOM
      1 C          63.3182   81.7544   13.9666 C.ar    1  UNL1        0.1718
      2 C          63.8449   82.7687   14.9381 C.ar    1  UNL1        0.0362
      3 C          63.8405   84.2249   14.5782 C.ar    1  UNL1       -0.0062
      4 C          63.3095   84.6668   13.2468 C.ar    1  UNL1        0.0630
      5 C          62.7828   83.6525   12.2753 C.ar    1  UNL1        0.0454
      6 C          62.7871   82.1964   12.6352 C.ar    1  UNL1        0.1679
      7 O          62.2604   81.1821   11.6637 O.3     1  UNL1       -0.5029
      8 C          63.3052   86.1230   12.8869 C.ar    1  UNL1        0.2260
      9 C          62.7741   86.5649   11.5555 C.ar    1  UNL1        0.0695
     10 C          62.7698   88.0211   11.1956 C.ar    1  UNL1        0.0150
     11 C          62.2387   88.4630    9.8641 C.ar    1  UNL1        0.0037
     12 C          62.2344   89.9191    9.5042 C.ar    1  UNL1        0.0398
     13 C          62.7611   90.9334   10.4758 C.ar    1  UNL1        0.1679
     14 O          62.7568   92.3896   10.1159 O.3     1  UNL1       -0.5029
     15 C          63.2922   90.4915   11.8072 C.ar    1  UNL1        0.1780
     16 C          63.2965   89.0353   12.1671 C.ar    1  UNL1        0.1068
     17 C          63.8275   88.5934   13.4985 C.ar    1  UNL1        0.2929
     18 N          63.8319   87.1372   13.8584 N.ar    1  UNL1       -0.1641
     19 C          64.3630   86.6953   15.1899 C.3     1  UNL1        0.3269
     20 C          64.3673   85.2391   15.5498 C.3     1  UNL1        0.1119
     21 H          61.9286   81.4582   10.8320 H       1  UNL1        0.2923
     22 H          62.4250   92.6656    9.2842 H       1  UNL1        0.2923
     23 C          62.1045   79.4599   14.0748 C.3     1  UNL1        0.2526
     24 O          63.3225   80.2983   14.3265 O.3     1  UNL1       -0.4684
     25 O          63.8189   91.5057   12.7787 O.3     1  UNL1       -0.4682
     26 C          65.2183   92.0261   12.6347 C.3     1  UNL1        0.2526
@<TRIPOS>UNITY_ATOM_ATTR
18 1
charge 1
@<TRIPOS>BOND
     1    23    24    1
     2    24     1    1
     3     1     2   ar
     4     2     3   ar
     5     3     4   ar
     6     4     5   ar
     7     5     6   ar
     8     6     7    1
     9     4     8    1
    10     8     9   ar
    11     9    10   ar
    12    10    11   ar
    13    11    12   ar
    14    12    13   ar
    15    13    14    1
    16    13    15   ar
    17    15    25    1
    18    25    26    1
    19    15    16   ar
    20    16    17   ar
    21    17    18   ar
    22    18    19    1
    23    19    20    1
    24     6     1   ar
    25    18     8   ar
    26    20     3    1
    27    16    10   ar
    28     7    21    1
    29    14    22    1
@<TRIPOS>MOLECULE
*****
 26 29 0 0 0
SMALL
GASTEIGER

@<TRIPOS>ATOM
      1 C          60.3801   87.6119    9.4220 C.ar    1  UNL1        0.1718
      2 C          60.9947   86.9753   10.6331 C.ar    1  UNL1        0.0362
      3 C          62.0058   87.7292   11.4451 C.ar    1  UNL1       -0.0062
      4 C          62.4023   89.1196   11.0460 C.ar    1  UNL1        0.0630
      5 C          61.7877   89.7562    9.8348 C.ar    1  UNL1        0.0454
      6 C          60.7766   89.0023    9.0228 C.ar    1  UNL1        0.1679
      7 O          60.1619   89.6390    7.8116 O.3     1  UNL1       -0.5029
      8 C          63.4134   89.8735   11.8580 C.ar    1  UNL1        0.2260
      9 C          63.8099   91.2639   11.4588 C.ar    1  UNL1        0.0695
     10 C          64.8210   92.0178   12.2708 C.ar    1  UNL1        0.0150
     11 C          65.2175   93.4083   11.8716 C.ar    1  UNL1        0.0037
     12 C          66.2286   94.1622   12.6836 C.ar    1  UNL1        0.0398
     13 C          66.8432   93.5256   13.8948 C.ar    1  UNL1        0.1679
     14 O          67.8543   94.2794   14.7068 O.3     1  UNL1       -0.5029
     15 C          66.4467   92.1351   14.2940 C.ar    1  UNL1        0.1780
     16 C          65.4356   91.3812   13.4820 C.ar    1  UNL1        0.1068
     17 C          65.0391   89.9908   13.8811 C.ar    1  UNL1        0.2929
     18 N          64.0280   89.2369   13.0691 N.ar    1  UNL1       -0.1641
     19 C          63.6315   87.8464   13.4684 C.3     1  UNL1        0.3269
     20 C          62.6204   87.0925   12.6564 C.3     1  UNL1        0.1119
     21 H          60.4096   90.5076    7.5622 H       1  UNL1        0.2923
     22 H          68.1020   95.1480   14.4574 H       1  UNL1        0.2923
     23 C          59.8186   85.9782    7.4814 C.3     1  UNL1        0.2526
     24 O          59.3689   86.8580    8.6100 O.3     1  UNL1       -0.4684
     25 O          67.0613   91.4985   15.5051 O.3     1  UNL1       -0.4682
     26 C          68.3520   92.0273   16.0570 C.3     1  UNL1        0.2526
@<TRIPOS>UNITY_ATOM_ATTR
18 1
charge 1
@<TRIPOS>BOND
     1    23    24    1
     2    24     1    1
     3     1     2   ar
     4     2     3   ar
     5     3     4   ar
     6     4     5   ar
     7     5     6   ar
     8     6     7    1
     9     4     8    1
    10     8     9   ar
    11     9    10   ar
    12    10    11   ar
    13    11    12   ar
    14    12    13   ar
    15    13    14    1
    16    13    15   ar
    17    15    25    1
    18    25    26    1
    19    15    16   ar
    20    16    17   ar
    21    17    18   ar
    22    18    19    1
    23    19    20    1
    24     6     1   ar
    25    18     8   ar
    26    20     3    1
    27    16    10   ar
    28     7    21    1
    29    14    22    1
@<TRIPOS>MOLECULE
*****
 26 29 0 0 0
SMALL
GASTEIGER

@<TRIPOS>ATOM
      1 C          45.8115   71.8082   17.5158 C.ar    1  UNL1        0.1718
      2 C          45.0362   72.5514   16.4687 C.ar    1  UNL1        0.0362
      3 C          44.8223   74.0300   16.6022 C.ar    1  UNL1       -0.0062
      4 C          45.3836   74.7655   17.7828 C.ar    1  UNL1        0.0630
      5 C          46.1589   74.0223   18.8299 C.ar    1  UNL1        0.0454
      6 C          46.3729   72.5437   18.6964 C.ar    1  UNL1        0.1679
      7 O          47.1482   71.8005   19.7436 O.3     1  UNL1       -0.5029
      8 C          45.1697   76.2441   17.9163 C.ar    1  UNL1        0.2260
      9 C          45.7310   76.9796   19.0969 C.ar    1  UNL1        0.0695
     10 C          45.5171   78.4582   19.2305 C.ar    1  UNL1        0.0150
     11 C          46.0785   79.1937   20.4112 C.ar    1  UNL1        0.0037
     12 C          45.8645   80.6724   20.5447 C.ar    1  UNL1        0.0398
     13 C          45.0892   81.4155   19.4975 C.ar    1  UNL1        0.1679
     14 O          44.8752   82.8942   19.6310 O.3     1  UNL1       -0.5029
     15 C          44.5278   80.6801   18.3168 C.ar    1  UNL1        0.1780
     16 C          44.7418   79.2014   18.1833 C.ar    1  UNL1        0.1068
     17 C          44.1805   78.4660   17.0027 C.ar    1  UNL1        0.2929
     18 N          44.3944   76.9873   16.8692 N.ar    1  UNL1       -0.1641
     19 C          43.8330   76.2519   15.6885 C.3     1  UNL1        0.3269
     20 C          44.0470   74.7732   15.5549 C.3     1  UNL1        0.1119
     21 H          47.4989   72.2599   20.4812 H       1  UNL1        0.2923
     22 H          45.2259   83.3536   20.3685 H       1  UNL1        0.2923
     23 C          45.8390   69.6618   16.0521 C.3     1  UNL1        0.2526
     24 O          46.0255   70.3296   17.3823 O.3     1  UNL1       -0.4684
     25 O          43.7526   81.4233   17.2697 O.3     1  UNL1       -0.4682
     26 C          44.4768   82.1699   16.1889 C.3     1  UNL1        0.2526
@<TRIPOS>UNITY_ATOM_ATTR
18 1
charge 1
@<TRIPOS>BOND
     1    23    24    1
     2    24     1    1
     3     1     2   ar
     4     2     3   ar
     5     3     4   ar
     6     4     5   ar
     7     5     6   ar
     8     6     7    1
     9     4     8    1
    10     8     9   ar
    11     9    10   ar
    12    10    11   ar
    13    11    12   ar
    14    12    13   ar
    15    13    14    1
    16    13    15   ar
    17    15    25    1
    18    25    26    1
    19    15    16   ar
    20    16    17   ar
    21    17    18   ar
    22    18    19    1
    23    19    20    1
    24     6     1   ar
    25    18     8   ar
    26    20     3    1
    27    16    10   ar
    28     7    21    1
    29    14    22    1
@<TRIPOS>MOLECULE
*****
 26 29 0 0 0
SMALL
GASTEIGER

@<TRIPOS>ATOM
      1 C          62.9229   81.2309   12.1190 C.ar    1  UNL1        0.1718
      2 C          62.4254   82.0993   11.0018 C.ar    1  UNL1        0.0362
      3 C          62.5227   83.5921   11.1118 C.ar    1  UNL1       -0.0062
      4 C          63.1176   84.2165   12.3391 C.ar    1  UNL1        0.0630
      5 C          63.6152   83.3481   13.4563 C.ar    1  UNL1        0.0454
      6 C          63.5178   81.8553   13.3463 C.ar    1  UNL1        0.1679
      7 O          64.0154   80.9869   14.4636 O.3     1  UNL1       -0.5029
      8 C          63.2150   85.7093   12.4491 C.ar    1  UNL1        0.2260
      9 C          63.8099   86.3336   13.6763 C.ar    1  UNL1        0.0695
     10 C          63.9073   87.8264   13.7864 C.ar    1  UNL1        0.0150
     11 C          64.5022   88.4508   15.0137 C.ar    1  UNL1        0.0037
     12 C          64.5996   89.9436   15.1237 C.ar    1  UNL1        0.0398
     13 C          64.1020   90.8120   14.0064 C.ar    1  UNL1        0.1679
     14 O          64.1993   92.3048   14.1165 O.3     1  UNL1       -0.5029
     15 C          63.5071   90.1876   12.7792 C.ar    1  UNL1        0.1780
     16 C          63.4097   88.6949   12.6692 C.ar    1  UNL1        0.1068
     17 C          62.8148   88.0705   11.4419 C.ar    1  UNL1        0.2929
     18 N          62.7174   86.5777   11.3319 N.ar    1  UNL1       -0.1641
     19 C          62.1225   85.9533   10.1045 C.3     1  UNL1        0.3269
     20 C          62.0251   84.4606    9.9945 C.3     1  UNL1        0.1119
     21 H          64.3871   81.3769   15.2302 H       1  UNL1        0.2923
     22 H          64.5710   92.6948   14.8831 H       1  UNL1        0.2923
     23 C          62.8378   79.0832   10.6596 C.3     1  UNL1        0.2526
     24 O          62.8256   79.7381   12.0090 O.3     1  UNL1       -0.4684
     25 O          63.0095   91.0561   11.6620 O.3     1  UNL1       -0.4682
     26 C          63.9804   91.6537   10.6872 C.3     1  UNL1        0.2526
@<TRIPOS>UNITY_ATOM_ATTR
18 1
charge 1
@<TRIPOS>BOND
     1    23    24    1
     2    24     1    1
     3     1     2   ar
     4     2     3   ar
     5     3     4   ar
     6     4     5   ar
     7     5     6   ar
     8     6     7    1
     9     4     8    1
    10     8     9   ar
    11     9    10   ar
    12    10    11   ar
    13    11    12   ar
    14    12    13   ar
    15    13    14    1
    16    13    15   ar
    17    15    25    1
    18    25    26    1
    19    15    16   ar
    20    16    17   ar
    21    17    18   ar
    22    18    19    1
    23    19    20    1
    24     6     1   ar
    25    18     8   ar
    26    20     3    1
    27    16    10   ar
    28     7    21    1
    29    14    22    1
@<TRIPOS>MOLECULE
*****
 26 29 0 0 0
SMALL
GASTEIGER

@<TRIPOS>ATOM
      1 C          73.0417   81.0093   10.1873 C.ar    1  UNL1        0.1718
      2 C          73.0882   81.1400   11.6809 C.ar    1  UNL1        0.0362
      3 C          72.8400   79.9406   12.5468 C.ar    1  UNL1       -0.0062
      4 C          72.5453   78.6105   11.9192 C.ar    1  UNL1        0.0630
      5 C          72.4988   78.4799   10.4256 C.ar    1  UNL1        0.0454
      6 C          72.7470   79.6792    9.5597 C.ar    1  UNL1        0.1679
      7 O          72.7005   79.5485    8.0661 O.3     1  UNL1       -0.5029
      8 C          72.2970   77.4111   12.7851 C.ar    1  UNL1        0.2260
      9 C          72.0023   76.0811   12.1575 C.ar    1  UNL1        0.0695
     10 C          71.7541   74.8817   13.0234 C.ar    1  UNL1        0.0150
     11 C          71.4593   73.5515   12.3957 C.ar    1  UNL1        0.0037
     12 C          71.2111   72.3521   13.2616 C.ar    1  UNL1        0.0398
     13 C          71.2576   72.4829   14.7553 C.ar    1  UNL1        0.1679
     14 O          71.0094   71.2835   15.6212 O.3     1  UNL1       -0.5029
     15 C          71.5523   73.8130   15.3829 C.ar    1  UNL1        0.1780
     16 C          71.8006   75.0124   14.5169 C.ar    1  UNL1        0.1068
     17 C          72.0953   76.3424   15.1446 C.ar    1  UNL1        0.2929
     18 N          72.3435   77.5418   14.2786 N.ar    1  UNL1       -0.1641
     19 C          72.6383   78.8720   14.9063 C.3     1  UNL1        0.3269
     20 C          72.8865   80.0714   14.0404 C.3     1  UNL1        0.1119
     21 H          72.5164   78.7176    7.6740 H       1  UNL1        0.2923
     22 H          70.8252   70.4526   15.2291 H       1  UNL1        0.2923
     23 C          72.1330   82.9812    8.7604 C.3     1  UNL1        0.2526
     24 O          73.2900   82.2087    9.3214 O.3     1  UNL1       -0.4684
     25 O          71.5988   73.9436   16.8764 O.3     1  UNL1       -0.4682
     26 C          72.8569   73.6058   17.6200 C.3     1  UNL1        0.2526
@<TRIPOS>UNITY_ATOM_ATTR
18 1
charge 1
@<TRIPOS>BOND
     1    23    24    1
     2    24     1    1
     3     1     2   ar
     4     2     3   ar
     5     3     4   ar
     6     4     5   ar
     7     5     6   ar
     8     6     7    1
     9     4     8    1
    10     8     9   ar
    11     9    10   ar
    12    10    11   ar
    13    11    12   ar
    14    12    13   ar
    15    13    14    1
    16    13    15   ar
    17    15    25    1
    18    25    26    1
    19    15    16   ar
    20    16    17   ar
    21    17    18   ar
    22    18    19    1
    23    19    20    1
    24     6     1   ar
    25    18     8   ar
    26    20     3    1
    27    16    10   ar
    28     7    21    1
    29    14    22    1
@<TRIPOS>MOLECULE
*****
 26 29 0 0 0
SMALL
GASTEIGER

@<TRIPOS>ATOM
      1 C          61.3123   92.7952    1.0525 C.ar    1  UNL1        0.1718
      2 C          61.6431   92.9905   -0.3974 C.ar    1  UNL1        0.0362
      3 C          60.5920   93.4844   -1.3466 C.ar    1  UNL1       -0.0062
      4 C          59.2099   93.7831   -0.8459 C.ar    1  UNL1        0.0630
      5 C          58.8791   93.5878    0.6040 C.ar    1  UNL1        0.0454
      6 C          59.9303   93.0938    1.5532 C.ar    1  UNL1        0.1679
      7 O          59.5993   92.8985    3.0032 O.3     1  UNL1       -0.5029
      8 C          58.1588   94.2770   -1.7952 C.ar    1  UNL1        0.2260
      9 C          56.7767   94.5757   -1.2945 C.ar    1  UNL1        0.0695
     10 C          55.7255   95.0696   -2.2437 C.ar    1  UNL1        0.0150
     11 C          54.3434   95.3683   -1.7429 C.ar    1  UNL1        0.0037
     12 C          53.2923   95.8622   -2.6922 C.ar    1  UNL1        0.0398
     13 C          53.6232   96.0575   -4.1422 C.ar    1  UNL1        0.1679
     14 O          52.5720   96.5515   -5.0914 O.3     1  UNL1       -0.5029
     15 C          55.0052   95.7589   -4.6428 C.ar    1  UNL1        0.1780
     16 C          56.0564   95.2649   -3.6936 C.ar    1  UNL1        0.1068
     17 C          57.4384   94.9663   -4.1943 C.ar    1  UNL1        0.2929
     18 N          58.4896   94.4724   -3.2451 N.ar    1  UNL1       -0.1641
     19 C          59.8717   94.1737   -3.7459 C.3     1  UNL1        0.3269
     20 C          60.9229   93.6798   -2.7966 C.3     1  UNL1        0.1119
     21 H          58.7360   93.0850    3.3160 H       1  UNL1        0.2923
     22 H          51.7087   96.7380   -4.7786 H       1  UNL1        0.2923
     23 C          63.7920   92.7226    1.8242 C.3     1  UNL1        0.2526
     24 O          62.3635   92.3012    2.0017 O.3     1  UNL1       -0.4684
     25 O          55.3361   95.9542   -6.0928 O.3     1  UNL1       -0.4682
     26 C          55.0543   94.8609   -7.0803 C.3     1  UNL1        0.2526
@<TRIPOS>UNITY_ATOM_ATTR
18 1
charge 1
@<TRIPOS>BOND
     1    23    24    1
     2    24     1    1
     3     1     2   ar
     4     2     3   ar
     5     3     4   ar
     6     4     5   ar
     7     5     6   ar
     8     6     7    1
     9     4     8    1
    10     8     9   ar
    11     9    10   ar
    12    10    11   ar
    13    11    12   ar
    14    12    13   ar
    15    13    14    1
    16    13    15   ar
    17    15    25    1
    18    25    26    1
    19    15    16   ar
    20    16    17   ar
    21    17    18   ar
    22    18    19    1
    23    19    20    1
    24     6     1   ar
    25    18     8   ar
    26    20     3    1
    27    16    10   ar
    28     7    21    1
    29    14    22    1
