@<TRIPOS>MOLECULE
*****
 24 27 0 0 0
SMALL
GASTEIGER

@<TRIPOS>ATOM
      1 C          65.2661   90.9109   14.7033 C.3     1  UNL1        0.0564
      2 C          64.9606   91.4143   13.3237 C.3     1  UNL1        0.1119
      3 C          63.9859   90.8065   12.3591 C.ar    1  UNL1       -0.0002
      4 C          63.0882   89.6091   12.4601 C.ar    1  UNL1       -0.0024
      5 C          62.2035   89.2358   11.3077 C.ar    1  UNL1       -0.0003
      6 C          62.2167   90.0598   10.0544 C.ar    1  UNL1        0.0000
      7 C          63.1145   91.2572    9.9534 C.ar    1  UNL1        0.0012
      8 C          63.9991   91.6305   11.1058 C.ar    1  UNL1        0.0152
      9 C          64.9819   92.7476   11.2959 C.ar    1  UNL1        0.0804
     10 C          65.5975   93.9474   10.6387 C.ar    1  UNL1        0.1177
     11 N          66.5721   94.5552   11.6034 N.ar    1  UNL1       -0.2223
     12 C          66.5590   93.7312   12.8567 C.ar    1  UNL1        0.1788
     13 N          65.5762   92.6140   12.6666 N.ar    1  UNL1       -0.3069
     14 O          63.3040   91.5367   16.2872 O.3     1  UNL1       -0.3844
     15 C          64.1492   90.4959   15.6147 C.3     1  UNL1        0.1127
     16 H          63.6106   92.4196   16.0273 H       1  UNL1        0.2103
     17 C          63.8776   89.0402   15.8535 C.3     1  UNL1        0.0274
     18 C          63.0494   88.6149   17.0296 C.3     1  UNL1        0.0080
     19 C          62.7778   87.1592   17.2684 C.3     1  UNL1        0.0666
     20 C          63.3344   86.1288   16.3312 C.3     1  UNL1        0.2639
     21 F          63.6404   84.7890   15.7299 F       1  UNL1       -0.2043
     22 F          62.6124   85.2381   17.2984 F       1  UNL1       -0.2043
     23 C          64.1627   86.5540   15.1552 C.3     1  UNL1        0.0666
     24 C          64.4343   88.0098   14.9163 C.3     1  UNL1        0.0080
@<TRIPOS>BOND
     1    14    15    1
     2    15     1    1
     3     1     2    1
     4     2     3    1
     5     3     4   ar
     6     4     5   ar
     7     5     6   ar
     8     6     7   ar
     9     7     8   ar
    10     8     9    1
    11     9    10   ar
    12    10    11   ar
    13    11    12   ar
    14    12    13   ar
    15    15    17    1
    16    17    18    1
    17    18    19    1
    18    19    20    1
    19    20    21    1
    20    20    22    1
    21    20    23    1
    22    23    24    1
    23    13     2    1
    24    24    17    1
    25     8     3   ar
    26    13     9   ar
    27    14    16    1
@<TRIPOS>MOLECULE
*****
 24 27 0 0 0
SMALL
GASTEIGER

@<TRIPOS>ATOM
      1 C          62.3422   88.6692   10.8087 C.3     1  UNL1        0.0564
      2 C          63.0811   88.6210   12.1132 C.3     1  UNL1        0.1119
      3 C          63.4176   87.3832   12.8906 C.ar    1  UNL1       -0.0002
      4 C          63.1458   85.9308   12.6323 C.ar    1  UNL1       -0.0024
      5 C          63.6141   84.8947   13.6106 C.ar    1  UNL1       -0.0003
      6 C          64.3542   85.3109   14.8471 C.ar    1  UNL1        0.0000
      7 C          64.6260   86.7632   15.1054 C.ar    1  UNL1        0.0012
      8 C          64.1577   87.7994   14.1272 C.ar    1  UNL1        0.0152
      9 C          64.2785   89.2944   14.1139 C.ar    1  UNL1        0.0804
     10 C          64.8106   90.4757   14.8700 C.ar    1  UNL1        0.1177
     11 N          64.4740   91.7135   14.0925 N.ar    1  UNL1       -0.2223
     12 C          63.7339   91.2974   12.8559 C.ar    1  UNL1        0.1788
     13 N          63.6131   89.8023   12.8692 N.ar    1  UNL1       -0.3069
     14 O          60.0680   87.5599   11.3987 O.3     1  UNL1       -0.3844
     15 C          61.2750   87.6572   10.5134 C.3     1  UNL1        0.1127
     16 H          60.1343   88.2171   12.1090 H       1  UNL1        0.2103
     17 C          61.4148   86.7425    9.3327 C.3     1  UNL1        0.0274
     18 C          60.2251   86.4463    8.4685 C.3     1  UNL1        0.0080
     19 C          60.3649   85.5317    7.2879 C.3     1  UNL1        0.0666
     20 C          61.6944   84.9133    6.9716 C.3     1  UNL1        0.2639
     21 F          62.7364   84.0930    6.2705 F       1  UNL1       -0.2043
     22 F          60.8666   84.3322    5.8638 F       1  UNL1       -0.2043
     23 C          62.8841   85.2095    7.8358 C.3     1  UNL1        0.0666
     24 C          62.7442   86.1241    9.0164 C.3     1  UNL1        0.0080
@<TRIPOS>BOND
     1    14    15    1
     2    15     1    1
     3     1     2    1
     4     2     3    1
     5     3     4   ar
     6     4     5   ar
     7     5     6   ar
     8     6     7   ar
     9     7     8   ar
    10     8     9    1
    11     9    10   ar
    12    10    11   ar
    13    11    12   ar
    14    12    13   ar
    15    15    17    1
    16    17    18    1
    17    18    19    1
    18    19    20    1
    19    20    21    1
    20    20    22    1
    21    20    23    1
    22    23    24    1
    23    13     2    1
    24    24    17    1
    25     8     3   ar
    26    13     9   ar
    27    14    16    1
@<TRIPOS>MOLECULE
*****
 24 27 0 0 0
SMALL
GASTEIGER

@<TRIPOS>ATOM
      1 C          64.1449   86.0343   14.7244 C.3     1  UNL1        0.0564
      2 C          63.6764   86.9402   13.6244 C.3     1  UNL1        0.1119
      3 C          63.9032   88.4208   13.5448 C.ar    1  UNL1       -0.0002
      4 C          64.6079   89.3788   14.4589 C.ar    1  UNL1       -0.0024
      5 C          64.6752   90.8361   14.1103 C.ar    1  UNL1       -0.0003
      6 C          64.0377   91.3355   12.8477 C.ar    1  UNL1        0.0000
      7 C          63.3330   90.3775   11.9336 C.ar    1  UNL1        0.0012
      8 C          63.2658   88.9201   12.2822 C.ar    1  UNL1        0.0152
      9 C          62.6449   87.7481   11.5815 C.ar    1  UNL1        0.0804
     10 C          61.8672   87.3325   10.3680 C.ar    1  UNL1        0.1177
     11 N          61.6403   85.8518   10.4477 N.ar    1  UNL1       -0.2223
     12 C          62.2778   85.3524   11.7103 C.ar    1  UNL1        0.1788
     13 N          62.8987   86.5244   12.4110 N.ar    1  UNL1       -0.3069
     14 O          66.3320   84.6634   14.4281 O.3     1  UNL1       -0.3844
     15 C          64.8346   84.7445   14.3912 C.3     1  UNL1        0.1127
     16 H          66.6963   85.5254   14.6835 H       1  UNL1        0.2103
     17 C          64.0270   83.5359   14.0211 C.3     1  UNL1        0.0274
     18 C          62.7988   83.1851   14.8076 C.3     1  UNL1        0.0080
     19 C          61.9912   81.9765   14.4376 C.3     1  UNL1        0.0666
     20 C          62.4116   81.1188   13.2811 C.3     1  UNL1        0.2639
     21 F          62.4047   80.0048   12.2766 F       1  UNL1       -0.2043
     22 F          61.1810   80.3811   13.7187 F       1  UNL1       -0.2043
     23 C          63.6397   81.4696   12.4946 C.3     1  UNL1        0.0666
     24 C          64.4474   82.6782   12.8646 C.3     1  UNL1        0.0080
@<TRIPOS>BOND
     1    14    15    1
     2    15     1    1
     3     1     2    1
     4     2     3    1
     5     3     4   ar
     6     4     5   ar
     7     5     6   ar
     8     6     7   ar
     9     7     8   ar
    10     8     9    1
    11     9    10   ar
    12    10    11   ar
    13    11    12   ar
    14    12    13   ar
    15    15    17    1
    16    17    18    1
    17    18    19    1
    18    19    20    1
    19    20    21    1
    20    20    22    1
    21    20    23    1
    22    23    24    1
    23    13     2    1
    24    24    17    1
    25     8     3   ar
    26    13     9   ar
    27    14    16    1
@<TRIPOS>MOLECULE
*****
 24 27 0 0 0
SMALL
GASTEIGER

@<TRIPOS>ATOM
      1 C          64.2560   86.2728   14.8356 C.3     1  UNL1        0.0564
      2 C          63.8260   87.2670   13.7981 C.3     1  UNL1        0.1119
      3 C          63.0956   86.9536   12.5259 C.ar    1  UNL1       -0.0002
      4 C          62.6076   85.6615   11.9409 C.ar    1  UNL1       -0.0024
      5 C          61.8930   85.6579   10.6221 C.ar    1  UNL1       -0.0003
      6 C          61.6664   86.9463    9.8883 C.ar    1  UNL1        0.0000
      7 C          62.1544   88.2385   10.4733 C.ar    1  UNL1        0.0012
      8 C          62.8690   88.2421   11.7921 C.ar    1  UNL1        0.0152
      9 C          63.4593   89.3518   12.6108 C.ar    1  UNL1        0.0804
     10 C          63.6841   90.8340   12.6632 C.ar    1  UNL1        0.1177
     11 N          64.4145   91.1473   13.9354 N.ar    1  UNL1       -0.2223
     12 C          64.6411   89.8588   14.6692 C.ar    1  UNL1        0.1788
     13 N          64.0508   88.7491   13.8505 N.ar    1  UNL1       -0.3069
     14 O          66.4350   84.9372   14.3683 O.3     1  UNL1       -0.3844
     15 C          64.9374   85.0025   14.4203 C.3     1  UNL1        0.1127
     16 H          66.8054   85.7943   14.6311 H       1  UNL1        0.2103
     17 C          64.1210   83.7977   14.0570 C.3     1  UNL1        0.0274
     18 C          64.5232   82.9428   12.8920 C.3     1  UNL1        0.0080
     19 C          63.7068   81.7380   12.5287 C.3     1  UNL1        0.0666
     20 C          62.4883   81.3881   13.3305 C.3     1  UNL1        0.2639
     21 F          61.2615   80.6526   13.7822 F       1  UNL1       -0.2043
     22 F          62.4644   80.2777   12.3223 F       1  UNL1       -0.2043
     23 C          62.0861   82.2430   14.4956 C.3     1  UNL1        0.0666
     24 C          62.9025   83.4478   14.8588 C.3     1  UNL1        0.0080
@<TRIPOS>BOND
     1    14    15    1
     2    15     1    1
     3     1     2    1
     4     2     3    1
     5     3     4   ar
     6     4     5   ar
     7     5     6   ar
     8     6     7   ar
     9     7     8   ar
    10     8     9    1
    11     9    10   ar
    12    10    11   ar
    13    11    12   ar
    14    12    13   ar
    15    15    17    1
    16    17    18    1
    17    18    19    1
    18    19    20    1
    19    20    21    1
    20    20    22    1
    21    20    23    1
    22    23    24    1
    23    13     2    1
    24    24    17    1
    25     8     3   ar
    26    13     9   ar
    27    14    16    1
@<TRIPOS>MOLECULE
*****
 24 27 0 0 0
SMALL
GASTEIGER

@<TRIPOS>ATOM
      1 C          61.7929   90.2247   11.4304 C.3     1  UNL1        0.0564
      2 C          61.6395   88.8166   10.9367 C.3     1  UNL1        0.1119
      3 C          60.8556   88.3849    9.7329 C.ar    1  UNL1       -0.0002
      4 C          60.0489   89.1563    8.7309 C.ar    1  UNL1       -0.0024
      5 C          59.3612   88.4373    7.6084 C.ar    1  UNL1       -0.0003
      6 C          59.4802   86.9469    7.4879 C.ar    1  UNL1        0.0000
      7 C          60.2869   86.1755    8.4899 C.ar    1  UNL1        0.0012
      8 C          60.9746   86.8944    9.6124 C.ar    1  UNL1        0.0152
      9 C          61.8320   86.4051   10.7417 C.ar    1  UNL1        0.0804
     10 C          62.4354   85.1814   11.3652 C.ar    1  UNL1        0.1177
     11 N          63.2193   85.6132   12.5691 N.ar    1  UNL1       -0.2223
     12 C          63.1003   87.1037   12.6896 C.ar    1  UNL1        0.1788
     13 N          62.2429   87.5930   11.5602 N.ar    1  UNL1       -0.3069
     14 O          62.9953   91.6198    9.5978 O.3     1  UNL1       -0.3844
     15 C          62.9626   91.0520   10.9858 C.3     1  UNL1        0.1127
     16 H          62.1905   91.3595    9.1230 H       1  UNL1        0.2103
     17 C          64.0994   91.3116   11.9293 C.3     1  UNL1        0.0274
     18 C          64.1394   90.6250   13.2623 C.3     1  UNL1        0.0080
     19 C          65.2762   90.8846   14.2058 C.3     1  UNL1        0.0666
     20 C          66.3730   91.8307   13.8163 C.3     1  UNL1        0.2639
     21 F          67.6361   92.6355   13.8999 F       1  UNL1       -0.2043
     22 F          66.8517   91.4236   15.1784 F       1  UNL1       -0.2043
     23 C          66.3331   92.5173   12.4833 C.3     1  UNL1        0.0666
     24 C          65.1963   92.2578   11.5398 C.3     1  UNL1        0.0080
@<TRIPOS>BOND
     1    14    15    1
     2    15     1    1
     3     1     2    1
     4     2     3    1
     5     3     4   ar
     6     4     5   ar
     7     5     6   ar
     8     6     7   ar
     9     7     8   ar
    10     8     9    1
    11     9    10   ar
    12    10    11   ar
    13    11    12   ar
    14    12    13   ar
    15    15    17    1
    16    17    18    1
    17    18    19    1
    18    19    20    1
    19    20    21    1
    20    20    22    1
    21    20    23    1
    22    23    24    1
    23    13     2    1
    24    24    17    1
    25     8     3   ar
    26    13     9   ar
    27    14    16    1
@<TRIPOS>MOLECULE
*****
 24 27 0 0 0
SMALL
GASTEIGER

@<TRIPOS>ATOM
      1 C          62.9442   85.4252   10.8361 C.3     1  UNL1        0.0564
      2 C          62.2759   86.7382   10.5546 C.3     1  UNL1        0.1119
      3 C          61.2395   86.9918    9.5002 C.ar    1  UNL1       -0.0002
      4 C          60.6005   86.0923    8.4841 C.ar    1  UNL1       -0.0024
      5 C          59.5716   86.6394    7.5398 C.ar    1  UNL1       -0.0003
      6 C          59.1817   88.0861    7.6114 C.ar    1  UNL1        0.0000
      7 C          59.8208   88.9856    8.6275 C.ar    1  UNL1        0.0012
      8 C          60.8497   88.4385    9.5719 C.ar    1  UNL1        0.0152
      9 C          61.6451   89.0790   10.6705 C.ar    1  UNL1        0.0804
     10 C          61.8958   90.3690   11.3939 C.ar    1  UNL1        0.1177
     11 N          62.9322   90.1154   12.4482 N.ar    1  UNL1       -0.2223
     12 C          63.3220   88.6687   12.3765 C.ar    1  UNL1        0.1788
     13 N          62.5266   88.0282   11.2779 N.ar    1  UNL1       -0.3069
     14 O          62.8641   85.6927   13.4192 O.3     1  UNL1       -0.3844
     15 C          62.8520   84.8146   12.2032 C.3     1  UNL1        0.1127
     16 H          62.9359   86.6210   13.1470 H       1  UNL1        0.2103
     17 C          62.7476   83.3258   12.3541 C.3     1  UNL1        0.0274
     18 C          62.9920   82.4334   11.1735 C.3     1  UNL1        0.0080
     19 C          62.8876   80.9447   11.3245 C.3     1  UNL1        0.0666
     20 C          62.5389   80.3485   12.6560 C.3     1  UNL1        0.2639
     21 F          62.2388   79.3179   13.7038 F       1  UNL1       -0.2043
     22 F          62.6790   79.0981   11.8393 F       1  UNL1       -0.2043
     23 C          62.2945   81.2409   13.8366 C.3     1  UNL1        0.0666
     24 C          62.3989   82.7296   13.6856 C.3     1  UNL1        0.0080
@<TRIPOS>BOND
     1    14    15    1
     2    15     1    1
     3     1     2    1
     4     2     3    1
     5     3     4   ar
     6     4     5   ar
     7     5     6   ar
     8     6     7   ar
     9     7     8   ar
    10     8     9    1
    11     9    10   ar
    12    10    11   ar
    13    11    12   ar
    14    12    13   ar
    15    15    17    1
    16    17    18    1
    17    18    19    1
    18    19    20    1
    19    20    21    1
    20    20    22    1
    21    20    23    1
    22    23    24    1
    23    13     2    1
    24    24    17    1
    25     8     3   ar
    26    13     9   ar
    27    14    16    1
@<TRIPOS>MOLECULE
*****
 24 27 0 0 0
SMALL
GASTEIGER

@<TRIPOS>ATOM
      1 C          61.7188   89.7530   11.5164 C.3     1  UNL1        0.0564
      2 C          61.5857   88.4033   10.8756 C.3     1  UNL1        0.1119
      3 C          62.1903   87.1255   11.3774 C.ar    1  UNL1       -0.0002
      4 C          63.0435   86.8204   12.5728 C.ar    1  UNL1       -0.0024
      5 C          63.5093   85.4168   12.8231 C.ar    1  UNL1       -0.0003
      6 C          63.1219   84.3182   11.8781 C.ar    1  UNL1        0.0000
      7 C          62.2687   84.6233   10.6827 C.ar    1  UNL1        0.0012
      8 C          61.8029   86.0270   10.4324 C.ar    1  UNL1        0.0152
      9 C          60.9589   86.6258    9.3465 C.ar    1  UNL1        0.0804
     10 C          60.1978   86.3169    8.0913 C.ar    1  UNL1        0.1177
     11 N          59.5933   87.5947    7.5895 N.ar    1  UNL1       -0.2223
     12 C          59.9807   88.6933    8.5346 C.ar    1  UNL1        0.1788
     13 N          60.8247   88.0944    9.6204 N.ar    1  UNL1       -0.3069
     14 O          62.7357   91.2815    9.6780 O.3     1  UNL1       -0.3844
     15 C          62.7900   90.6981   11.0588 C.3     1  UNL1        0.1127
     16 H          61.9508   90.9472    9.2164 H       1  UNL1        0.2103
     17 C          63.9155   91.0599   11.9821 C.3     1  UNL1        0.0274
     18 C          64.9196   92.0955   11.5707 C.3     1  UNL1        0.0080
     19 C          66.0451   92.4573   12.4940 C.3     1  UNL1        0.0666
     20 C          66.1663   91.7835   13.8287 C.3     1  UNL1        0.2639
     21 F          66.7008   91.4264   15.1839 F       1  UNL1       -0.2043
     22 F          67.3561   92.6951   13.8880 F       1  UNL1       -0.2043
     23 C          65.1622   90.7480   14.2401 C.3     1  UNL1        0.0666
     24 C          64.0367   90.3862   13.3168 C.3     1  UNL1        0.0080
@<TRIPOS>BOND
     1    14    15    1
     2    15     1    1
     3     1     2    1
     4     2     3    1
     5     3     4   ar
     6     4     5   ar
     7     5     6   ar
     8     6     7   ar
     9     7     8   ar
    10     8     9    1
    11     9    10   ar
    12    10    11   ar
    13    11    12   ar
    14    12    13   ar
    15    15    17    1
    16    17    18    1
    17    18    19    1
    18    19    20    1
    19    20    21    1
    20    20    22    1
    21    20    23    1
    22    23    24    1
    23    13     2    1
    24    24    17    1
    25     8     3   ar
    26    13     9   ar
    27    14    16    1
@<TRIPOS>MOLECULE
*****
 24 27 0 0 0
SMALL
GASTEIGER

@<TRIPOS>ATOM
      1 C          63.0483   91.0887   10.0883 C.3     1  UNL1        0.0564
      2 C          63.9546   91.4472   11.2286 C.3     1  UNL1        0.1119
      3 C          64.0852   90.6965   12.5206 C.ar    1  UNL1       -0.0002
      4 C          63.4107   89.4595   13.0353 C.ar    1  UNL1       -0.0024
      5 C          63.7516   88.9307   14.3969 C.ar    1  UNL1       -0.0003
      6 C          64.7670   89.6389   15.2439 C.ar    1  UNL1        0.0000
      7 C          65.4415   90.8759   14.7292 C.ar    1  UNL1        0.0012
      8 C          65.1006   91.4047   13.3676 C.ar    1  UNL1        0.0152
      9 C          65.5975   92.5931   12.5990 C.ar    1  UNL1        0.0804
     10 C          66.5322   93.7654   12.6475 C.ar    1  UNL1        0.1177
     11 N          66.4015   94.5161   11.3554 N.ar    1  UNL1       -0.2223
     12 C          65.3861   93.8079   10.5084 C.ar    1  UNL1        0.1788
     13 N          64.8892   92.6194   11.2770 N.ar    1  UNL1       -0.3069
     14 O          60.7676   91.0633   11.3325 O.3     1  UNL1       -0.3844
     15 C          61.7232   90.4398   10.3588 C.3     1  UNL1        0.1127
     16 H          61.1582   91.8740   11.6947 H       1  UNL1        0.2103
     17 C          61.3537   89.1674    9.6556 C.3     1  UNL1        0.0274
     18 C          62.2289   87.9564    9.7872 C.3     1  UNL1        0.0080
     19 C          61.8595   86.6841    9.0840 C.3     1  UNL1        0.0666
     20 C          60.6147   86.6227    8.2492 C.3     1  UNL1        0.2639
     21 F          59.5450   86.0747    7.3518 F       1  UNL1       -0.2043
     22 F          61.1185   85.2213    8.0691 F       1  UNL1       -0.2043
     23 C          59.7395   87.8337    8.1175 C.3     1  UNL1        0.0666
     24 C          60.1090   89.1061    8.8208 C.3     1  UNL1        0.0080
@<TRIPOS>BOND
     1    14    15    1
     2    15     1    1
     3     1     2    1
     4     2     3    1
     5     3     4   ar
     6     4     5   ar
     7     5     6   ar
     8     6     7   ar
     9     7     8   ar
    10     8     9    1
    11     9    10   ar
    12    10    11   ar
    13    11    12   ar
    14    12    13   ar
    15    15    17    1
    16    17    18    1
    17    18    19    1
    18    19    20    1
    19    20    21    1
    20    20    22    1
    21    20    23    1
    22    23    24    1
    23    13     2    1
    24    24    17    1
    25     8     3   ar
    26    13     9   ar
    27    14    16    1
@<TRIPOS>MOLECULE
*****
 24 27 0 0 0
SMALL
GASTEIGER

@<TRIPOS>ATOM
      1 C          62.4695   89.9587   11.2936 C.3     1  UNL1        0.0564
      2 C          63.3917   90.6801   12.2312 C.3     1  UNL1        0.1119
      3 C          64.4381   91.6818   11.8417 C.ar    1  UNL1       -0.0002
      4 C          64.8562   92.2302   10.5096 C.ar    1  UNL1       -0.0024
      5 C          65.9586   93.2440   10.4285 C.ar    1  UNL1       -0.0003
      6 C          66.6430   93.7095   11.6794 C.ar    1  UNL1        0.0000
      7 C          66.2250   93.1612   13.0115 C.ar    1  UNL1        0.0012
      8 C          65.1226   92.1473   13.0927 C.ar    1  UNL1        0.0152
      9 C          64.4992   91.4333   14.2552 C.ar    1  UNL1        0.0804
     10 C          64.5369   91.2798   15.7470 C.ar    1  UNL1        0.1177
     11 N          63.4905   90.2780   16.1364 N.ar    1  UNL1       -0.2223
     12 C          62.8060   89.8125   14.8854 C.ar    1  UNL1        0.1788
     13 N          63.4294   90.5265   13.7228 N.ar    1  UNL1       -0.3069
     14 O          63.1650   87.6815   12.3334 O.3     1  UNL1       -0.3844
     15 C          62.4453   88.4590   11.2715 C.3     1  UNL1        0.1127
     16 H          63.5905   88.2960   12.9516 H       1  UNL1        0.2103
     17 C          61.7014   87.7368   10.1874 C.3     1  UNL1        0.0274
     18 C          60.2774   88.0988    9.8858 C.3     1  UNL1        0.0080
     19 C          59.5335   87.3766    8.8018 C.3     1  UNL1        0.0666
     20 C          60.2137   86.2926    8.0194 C.3     1  UNL1        0.2639
     21 F          60.4247   85.2027    7.0106 F       1  UNL1       -0.2043
     22 F          58.8629   86.2760    7.3674 F       1  UNL1       -0.2043
     23 C          61.6377   85.9306    8.3210 C.3     1  UNL1        0.0666
     24 C          62.3816   86.6528    9.4050 C.3     1  UNL1        0.0080
@<TRIPOS>BOND
     1    14    15    1
     2    15     1    1
     3     1     2    1
     4     2     3    1
     5     3     4   ar
     6     4     5   ar
     7     5     6   ar
     8     6     7   ar
     9     7     8   ar
    10     8     9    1
    11     9    10   ar
    12    10    11   ar
    13    11    12   ar
    14    12    13   ar
    15    15    17    1
    16    17    18    1
    17    18    19    1
    18    19    20    1
    19    20    21    1
    20    20    22    1
    21    20    23    1
    22    23    24    1
    23    13     2    1
    24    24    17    1
    25     8     3   ar
    26    13     9   ar
    27    14    16    1
