@<TRIPOS>MOLECULE
*****
 32 35 0 0 0
SMALL
GASTEIGER

@<TRIPOS>ATOM
      1 N          55.5274   95.5352   -2.0241 N.am    1  UNL1       -0.2671
      2 C          56.3090   94.2824   -2.2884 C.2     1  UNL1        0.3078
      3 O          55.7745   93.2512   -3.2375 O.2     1  UNL1       -0.2522
      4 N          57.6250   94.0610   -1.6036 N.am    1  UNL1       -0.2605
      5 C          58.4066   92.8082   -1.8679 C.3     1  UNL1        0.1164
      6 C          59.7226   92.5868   -1.1831 C.3     1  UNL1        0.1137
      7 N          60.2571   93.6181   -0.2339 N.pl3   1  UNL1       -0.2901
      8 C          59.4756   94.8708    0.0304 C.3     1  UNL1        0.0941
      9 C          60.0101   95.9020    0.9795 C.3     1  UNL1        0.0233
     10 C          58.1595   95.0922   -0.6545 C.3     1  UNL1        0.1147
     11 H          55.8782   96.2120   -1.4011 H       1  UNL1        0.1565
     12 C          61.5732   93.3965    0.4509 C.ar    1  UNL1        0.1544
     13 N          61.6808   92.3959    1.5631 N.ar    1  UNL1       -0.1974
     14 C          62.9968   92.1744    2.2479 C.ar    1  UNL1        0.2154
     15 N          63.1045   91.1736    3.3602 N.pl3   1  UNL1       -0.3274
     16 N          64.2053   92.9535    1.8205 N.ar    1  UNL1       -0.2057
     17 C          64.0976   93.9542    0.7083 C.ar    1  UNL1        0.1353
     18 S          65.1087   94.8630    0.0745 S.2     1  UNL1       -0.0453
     19 C          64.4176   95.6462   -1.0020 C.ar    1  UNL1        0.1360
     20 N          62.9793   95.2215   -1.0336 N.ar    1  UNL1       -0.2319
     21 C          62.7816   94.1757    0.0235 C.ar    1  UNL1        0.1372
     22 H          62.3113   90.6623    3.6407 H       1  UNL1        0.1452
     23 H          63.9682   91.0283    3.8096 H       1  UNL1        0.1452
     24 C          51.5793   96.1996   -4.0785 C.ar    1  UNL1        0.2247
     25 C          51.6147   95.7942   -2.6348 C.ar    1  UNL1        0.0590
     26 C          52.9307   95.5727   -1.9500 C.ar    1  UNL1        0.0207
     27 C          54.2114   95.7567   -2.7089 C.ar    1  UNL1        0.0654
     28 C          54.1761   96.1621   -4.1527 C.ar    1  UNL1        0.0759
     29 C          55.4568   96.3461   -4.9116 C.3     1  UNL1        0.0535
     30 N          52.8600   96.3836   -4.8375 N.ar    1  UNL1       -0.2148
     31 C          50.1186   96.1197   -6.2256 C.3     1  UNL1        0.2542
     32 O          50.2633   96.4211   -4.7633 O.3     1  UNL1       -0.4561
@<TRIPOS>BOND
     1    31    32    1
     2    32    24    1
     3    24    25   ar
     4    25    26   ar
     5    26    27   ar
     6    27     1    1
     7     1     2   am
     8     2     3    2
     9     2     4   am
    10     4     5    1
    11     5     6    1
    12     6     7    1
    13     7    12    1
    14    12    13   ar
    15    13    14   ar
    16    14    15    1
    17    14    16   ar
    18    16    17   ar
    19    17    18   ar
    20    18    19   ar
    21    19    20   ar
    22    20    21   ar
    23     7     8    1
    24     8     9    1
    25     8    10    1
    26    27    28   ar
    27    28    29    1
    28    28    30   ar
    29    30    24   ar
    30    10     4    1
    31    21    12   ar
    32    21    17   ar
    33     1    11    1
    34    15    22    1
    35    15    23    1
@<TRIPOS>MOLECULE
*****
 32 35 0 0 0
SMALL
GASTEIGER

@<TRIPOS>ATOM
      1 N          55.9783   96.0156   -2.9639 N.am    1  UNL1       -0.2671
      2 C          56.6678   94.6841   -2.9203 C.2     1  UNL1        0.3078
      3 O          56.0095   93.4786   -3.5228 O.2     1  UNL1       -0.2522
      4 N          58.0156   94.5583   -2.2741 N.am    1  UNL1       -0.2605
      5 C          58.7051   93.2269   -2.2305 C.3     1  UNL1        0.1164
      6 C          60.0529   93.1010   -1.5843 C.3     1  UNL1        0.1137
      7 N          60.7113   94.3067   -0.9817 N.pl3   1  UNL1       -0.2901
      8 C          60.0218   95.6381   -1.0253 C.3     1  UNL1        0.0941
      9 C          60.6802   96.8437   -0.4228 C.3     1  UNL1        0.0233
     10 C          58.6740   95.7639   -1.6715 C.3     1  UNL1        0.1147
     11 H          56.4104   96.8069   -2.5684 H       1  UNL1        0.1565
     12 C          62.0591   94.1809   -0.3356 C.ar    1  UNL1        0.1544
     13 N          63.2446   94.8807   -0.9311 N.ar    1  UNL1       -0.1974
     14 C          64.5924   94.7549   -0.2850 C.ar    1  UNL1        0.2154
     15 N          65.7780   95.4548   -0.8805 N.pl3   1  UNL1       -0.3274
     16 N          64.7548   93.9292    0.9568 N.ar    1  UNL1       -0.2057
     17 C          63.5692   93.2293    1.5523 C.ar    1  UNL1        0.1353
     18 S          63.4239   92.3527    2.7608 S.2     1  UNL1       -0.0453
     19 C          61.9863   91.9368    2.8615 C.ar    1  UNL1        0.1360
     20 N          61.2430   92.5563    1.7153 N.ar    1  UNL1       -0.2319
     21 C          62.2214   93.3551    0.9061 C.ar    1  UNL1        0.1372
     22 H          65.6715   95.9968   -1.6955 H       1  UNL1        0.1452
     23 H          66.6626   95.3722   -0.4564 H       1  UNL1        0.1452
     24 C          51.9349   96.3931   -4.9024 C.ar    1  UNL1        0.2247
     25 C          53.1773   96.4581   -5.7402 C.ar    1  UNL1        0.0590
     26 C          54.5251   96.3323   -5.0942 C.ar    1  UNL1        0.0207
     27 C          54.6306   96.1414   -3.6100 C.ar    1  UNL1        0.0654
     28 C          53.3880   96.0764   -2.7721 C.ar    1  UNL1        0.0759
     29 C          53.4934   95.8855   -1.2880 C.3     1  UNL1        0.0535
     30 N          52.0402   96.2022   -3.4183 N.ar    1  UNL1       -0.2148
     31 C          50.2736   95.7349   -6.7884 C.3     1  UNL1        0.2542
     32 O          50.5870   96.5189   -5.5486 O.3     1  UNL1       -0.4561
@<TRIPOS>BOND
     1    31    32    1
     2    32    24    1
     3    24    25   ar
     4    25    26   ar
     5    26    27   ar
     6    27     1    1
     7     1     2   am
     8     2     3    2
     9     2     4   am
    10     4     5    1
    11     5     6    1
    12     6     7    1
    13     7    12    1
    14    12    13   ar
    15    13    14   ar
    16    14    15    1
    17    14    16   ar
    18    16    17   ar
    19    17    18   ar
    20    18    19   ar
    21    19    20   ar
    22    20    21   ar
    23     7     8    1
    24     8     9    1
    25     8    10    1
    26    27    28   ar
    27    28    29    1
    28    28    30   ar
    29    30    24   ar
    30    10     4    1
    31    21    12   ar
    32    21    17   ar
    33     1    11    1
    34    15    22    1
    35    15    23    1
