@<TRIPOS>MOLECULE
*****
 25 28 0 0 0
SMALL
GASTEIGER

@<TRIPOS>ATOM
      1 C          64.0865   89.3712   14.3013 C.ar    1  UNL1        0.0531
      2 C          63.3790   89.4868   12.9838 C.ar    1  UNL1        0.0045
      3 C          63.6957   90.6251   12.0597 C.ar    1  UNL1        0.0001
      4 C          64.7199   91.6479   12.4532 C.ar    1  UNL1       -0.0002
      5 C          65.0366   92.7863   11.5292 C.ar    1  UNL1       -0.0017
      6 C          66.0608   93.8090   11.9227 C.ar    1  UNL1        0.0071
      7 C          66.7684   93.6935   13.2404 C.ar    1  UNL1       -0.0017
      8 C          66.4517   92.5551   14.1644 C.ar    1  UNL1       -0.0002
      9 C          65.4274   91.5323   13.7708 C.ar    1  UNL1        0.0001
     10 C          65.1107   90.3939   14.6948 C.ar    1  UNL1        0.0045
     11 C          66.3775   94.9474   10.9987 C.3     1  UNL1        0.1432
     12 O          65.5789   95.7569   11.9768 O.3     1  UNL1       -0.3770
     13 C          66.5272   96.2549   10.2791 C.3     1  UNL1        0.0614
     14 C          67.3522   96.0156    9.0495 C.3     1  UNL1        0.1105
     15 N          67.7123   94.5600    9.0091 N.ar    1  UNL1       -0.3101
     16 C          68.4448   93.5125    8.2241 C.ar    1  UNL1        0.1784
     17 N          68.2951   92.2049    8.9436 N.ar    1  UNL1       -0.2226
     18 C          67.4701   92.4443   10.1733 C.ar    1  UNL1        0.1160
     19 C          67.1099   93.8998   10.2137 C.ar    1  UNL1        0.0859
     20 H          65.5497   96.6811   11.6839 H       1  UNL1        0.2112
     21 N          64.1538   86.8325   14.8492 N.am    1  UNL1       -0.3253
     22 C          63.7698   88.2328   15.2253 C.2     1  UNL1        0.2427
     23 O          63.0692   88.4948   16.5255 O.2     1  UNL1       -0.2704
     24 H          63.9459   86.0853   15.4557 H       1  UNL1        0.1453
     25 H          64.6136   86.6605   13.9959 H       1  UNL1        0.1453
@<TRIPOS>BOND
     1    21    22   am
     2    22    23    2
     3    22     1    1
     4     1     2   ar
     5     2     3   ar
     6     3     4   ar
     7     4     5   ar
     8     5     6   ar
     9     6    11    1
    10    11    12    1
    11    11    13    1
    12    13    14    1
    13    14    15    1
    14    15    16   ar
    15    16    17   ar
    16    17    18   ar
    17    18    19   ar
    18     6     7   ar
    19     7     8   ar
    20     8     9   ar
    21     9    10   ar
    22    10     1   ar
    23     9     4   ar
    24    19    11    1
    25    19    15   ar
    26    21    24    1
    27    21    25    1
    28    12    20    1
@<TRIPOS>MOLECULE
*****
 25 28 0 0 0
SMALL
GASTEIGER

@<TRIPOS>ATOM
      1 C          60.7352   86.7229    8.8626 C.ar    1  UNL1        0.0531
      2 C          61.6546   85.8533    9.6679 C.ar    1  UNL1        0.0045
      3 C          62.4533   86.4445   10.7914 C.ar    1  UNL1        0.0001
      4 C          62.3327   87.9054   11.1097 C.ar    1  UNL1       -0.0002
      5 C          63.1315   88.4966   12.2332 C.ar    1  UNL1       -0.0017
      6 C          63.0109   89.9575   12.5515 C.ar    1  UNL1        0.0071
      7 C          62.0915   90.8272   11.7462 C.ar    1  UNL1       -0.0017
      8 C          61.2927   90.2359   10.6227 C.ar    1  UNL1       -0.0002
      9 C          61.4133   88.7750   10.3044 C.ar    1  UNL1        0.0001
     10 C          60.6146   88.1837    9.1809 C.ar    1  UNL1        0.0045
     11 C          63.8097   90.5487   13.6751 C.3     1  UNL1        0.1432
     12 O          63.0121   89.6074   14.5281 O.3     1  UNL1       -0.3770
     13 C          64.4417   90.9432   14.9769 C.3     1  UNL1        0.0614
     14 C          65.4629   92.0047   14.6936 C.3     1  UNL1        0.1105
     15 N          65.4620   92.2663   13.2166 N.ar    1  UNL1       -0.3101
     16 C          66.0926   93.0841   12.1286 C.ar    1  UNL1        0.1784
     17 N          65.4606   92.6896   10.8267 N.ar    1  UNL1       -0.2226
     18 C          64.4394   91.6281   11.1101 C.ar    1  UNL1        0.1160
     19 C          64.4403   91.3665   12.5871 C.ar    1  UNL1        0.0859
     20 H          63.2788   89.7067   15.4554 H       1  UNL1        0.2112
     21 N          58.5308   86.5942    7.4936 N.am    1  UNL1       -0.3253
     22 C          59.9364   86.1316    7.7390 C.2     1  UNL1        0.2427
     23 O          60.5432   85.0777    6.8610 O.2     1  UNL1       -0.2704
     24 H          58.0066   86.2062    6.7561 H       1  UNL1        0.1453
     25 H          58.1325   87.2860    8.0699 H       1  UNL1        0.1453
@<TRIPOS>BOND
     1    21    22   am
     2    22    23    2
     3    22     1    1
     4     1     2   ar
     5     2     3   ar
     6     3     4   ar
     7     4     5   ar
     8     5     6   ar
     9     6    11    1
    10    11    12    1
    11    11    13    1
    12    13    14    1
    13    14    15    1
    14    15    16   ar
    15    16    17   ar
    16    17    18   ar
    17    18    19   ar
    18     6     7   ar
    19     7     8   ar
    20     8     9   ar
    21     9    10   ar
    22    10     1   ar
    23     9     4   ar
    24    19    11    1
    25    19    15   ar
    26    21    24    1
    27    21    25    1
    28    12    20    1
@<TRIPOS>MOLECULE
*****
 25 28 0 0 0
SMALL
GASTEIGER

@<TRIPOS>ATOM
      1 C          65.7083   92.0399   14.3976 C.ar    1  UNL1        0.0531
      2 C          64.8232   91.1247   15.1906 C.ar    1  UNL1        0.0045
      3 C          63.7146   90.3778   14.5100 C.ar    1  UNL1        0.0001
      4 C          63.4911   90.5463   13.0364 C.ar    1  UNL1       -0.0002
      5 C          62.3824   89.7994   12.3558 C.ar    1  UNL1       -0.0017
      6 C          62.1589   89.9678   10.8822 C.ar    1  UNL1        0.0071
      7 C          63.0440   90.8831   10.0891 C.ar    1  UNL1       -0.0017
      8 C          64.1526   91.6300   10.7697 C.ar    1  UNL1       -0.0002
      9 C          64.3761   91.4615   12.2434 C.ar    1  UNL1        0.0001
     10 C          65.4847   92.2084   12.9240 C.ar    1  UNL1        0.0045
     11 C          61.0503   89.2210   10.2016 C.3     1  UNL1        0.1432
     12 O          60.6304   90.5836    9.7360 O.3     1  UNL1       -0.3770
     13 C          59.8539   88.7590    9.4237 C.3     1  UNL1        0.0614
     14 C          59.7662   87.2670    9.5509 C.3     1  UNL1        0.1105
     15 N          60.9083   86.8069   10.4074 N.ar    1  UNL1       -0.3101
     16 C          61.5600   85.6003   11.0154 C.ar    1  UNL1        0.1784
     17 N          62.7564   86.0623   11.7933 N.ar    1  UNL1       -0.2226
     18 C          62.8442   87.5543   11.6661 C.ar    1  UNL1        0.1160
     19 C          61.7020   88.0145   10.8096 C.ar    1  UNL1        0.0859
     20 H          59.8333   90.5068    9.1885 H       1  UNL1        0.2112
     21 N          66.6704   93.2045   16.5114 N.am    1  UNL1       -0.3253
     22 C          66.8169   92.7868   15.0782 C.2     1  UNL1        0.2427
     23 O          68.0720   93.1158   14.3257 O.2     1  UNL1       -0.2704
     24 H          67.3980   93.6947   16.9580 H       1  UNL1        0.1453
     25 H          65.8466   92.9886   17.0053 H       1  UNL1        0.1453
@<TRIPOS>BOND
     1    21    22   am
     2    22    23    2
     3    22     1    1
     4     1     2   ar
     5     2     3   ar
     6     3     4   ar
     7     4     5   ar
     8     5     6   ar
     9     6    11    1
    10    11    12    1
    11    11    13    1
    12    13    14    1
    13    14    15    1
    14    15    16   ar
    15    16    17   ar
    16    17    18   ar
    17    18    19   ar
    18     6     7   ar
    19     7     8   ar
    20     8     9   ar
    21     9    10   ar
    22    10     1   ar
    23     9     4   ar
    24    19    11    1
    25    19    15   ar
    26    21    24    1
    27    21    25    1
    28    12    20    1
@<TRIPOS>MOLECULE
*****
 25 28 0 0 0
SMALL
GASTEIGER

@<TRIPOS>ATOM
      1 C          65.3601   92.0451   13.0742 C.ar    1  UNL1        0.0531
      2 C          65.5177   92.4996   11.6534 C.ar    1  UNL1        0.0045
      3 C          64.5692   92.0098   10.5997 C.ar    1  UNL1        0.0001
      4 C          63.4631   91.0655   10.9666 C.ar    1  UNL1       -0.0002
      5 C          62.5146   90.5757    9.9128 C.ar    1  UNL1       -0.0017
      6 C          61.4085   89.6314   10.2798 C.ar    1  UNL1        0.0071
      7 C          61.2507   89.1769   11.7006 C.ar    1  UNL1       -0.0017
      8 C          62.1992   89.6667   12.7544 C.ar    1  UNL1       -0.0002
      9 C          63.3054   90.6110   12.3873 C.ar    1  UNL1        0.0001
     10 C          64.2539   91.1008   13.4411 C.ar    1  UNL1        0.0045
     11 C          60.4600   89.1416    9.2260 C.3     1  UNL1        0.1432
     12 O          59.8352   90.4962    9.3819 O.3     1  UNL1       -0.3770
     13 C          59.3809   88.9349    8.2048 C.3     1  UNL1        0.0614
     14 C          59.5371   87.5550    7.6381 C.3     1  UNL1        0.1105
     15 N          60.7128   86.9087    8.3090 N.ar    1  UNL1       -0.3101
     16 C          61.5359   85.6564    8.3734 C.ar    1  UNL1        0.1784
     17 N          62.6151   85.8629    9.3946 N.ar    1  UNL1       -0.2226
     18 C          62.4588   87.2430    9.9613 C.ar    1  UNL1        0.1160
     19 C          61.2831   87.8893    9.2904 C.ar    1  UNL1        0.0859
     20 H          59.0790   90.5748    8.7795 H       1  UNL1        0.2112
     21 N          67.7579   92.7354   13.7978 N.am    1  UNL1       -0.3253
     22 C          66.3085   92.5350   14.1280 C.2     1  UNL1        0.2427
     23 O          65.8076   92.8243   15.5119 O.2     1  UNL1       -0.2704
     24 H          68.3804   93.0569   14.4895 H       1  UNL1        0.1453
     25 H          68.0867   92.5455   12.8895 H       1  UNL1        0.1453
@<TRIPOS>BOND
     1    21    22   am
     2    22    23    2
     3    22     1    1
     4     1     2   ar
     5     2     3   ar
     6     3     4   ar
     7     4     5   ar
     8     5     6   ar
     9     6    11    1
    10    11    12    1
    11    11    13    1
    12    13    14    1
    13    14    15    1
    14    15    16   ar
    15    16    17   ar
    16    17    18   ar
    17    18    19   ar
    18     6     7   ar
    19     7     8   ar
    20     8     9   ar
    21     9    10   ar
    22    10     1   ar
    23     9     4   ar
    24    19    11    1
    25    19    15   ar
    26    21    24    1
    27    21    25    1
    28    12    20    1
@<TRIPOS>MOLECULE
*****
 25 28 0 0 0
SMALL
GASTEIGER

@<TRIPOS>ATOM
      1 C          63.9231   89.3874   13.2885 C.ar    1  UNL1        0.0531
      2 C          63.0593   88.9346   12.1489 C.ar    1  UNL1        0.0045
      3 C          62.6747   87.4898   12.0272 C.ar    1  UNL1        0.0001
      4 C          63.1540   86.4978   13.0451 C.ar    1  UNL1       -0.0002
      5 C          62.7694   85.0531   12.9234 C.ar    1  UNL1       -0.0017
      6 C          63.2487   84.0611   13.9414 C.ar    1  UNL1        0.0071
      7 C          64.1126   84.5139   15.0811 C.ar    1  UNL1       -0.0017
      8 C          64.4971   85.9586   15.2027 C.ar    1  UNL1       -0.0002
      9 C          64.0178   86.9506   14.1847 C.ar    1  UNL1        0.0001
     10 C          64.4024   88.3954   14.3064 C.ar    1  UNL1        0.0045
     11 C          62.8642   82.6164   13.8197 C.3     1  UNL1        0.1432
     12 O          62.3644   82.7940   15.2227 O.3     1  UNL1       -0.3770
     13 C          62.3752   81.2088   13.9913 C.3     1  UNL1        0.0614
     14 C          62.6530   80.4632   12.7197 C.3     1  UNL1        0.1105
     15 N          63.3138   81.4101   11.7622 N.ar    1  UNL1       -0.3101
     16 C          63.8940   81.5345   10.3845 C.ar    1  UNL1        0.1784
     17 N          64.3830   82.9421   10.2128 N.ar    1  UNL1       -0.2226
     18 C          64.1051   83.6876   11.4845 C.ar    1  UNL1        0.1160
     19 C          63.4443   82.7408   12.4420 C.ar    1  UNL1        0.0859
     20 H          61.9889   81.9580   15.5405 H       1  UNL1        0.2112
     21 N          64.6030   91.6359   12.1787 N.am    1  UNL1       -0.3253
     22 C          64.3076   90.8321   13.4102 C.2     1  UNL1        0.2427
     23 O          64.3968   91.4731   14.7633 O.2     1  UNL1       -0.2704
     24 H          64.8554   92.5841   12.2585 H       1  UNL1        0.1453
     25 H          64.5445   91.2152   11.2905 H       1  UNL1        0.1453
@<TRIPOS>BOND
     1    21    22   am
     2    22    23    2
     3    22     1    1
     4     1     2   ar
     5     2     3   ar
     6     3     4   ar
     7     4     5   ar
     8     5     6   ar
     9     6    11    1
    10    11    12    1
    11    11    13    1
    12    13    14    1
    13    14    15    1
    14    15    16   ar
    15    16    17   ar
    16    17    18   ar
    17    18    19   ar
    18     6     7   ar
    19     7     8   ar
    20     8     9   ar
    21     9    10   ar
    22    10     1   ar
    23     9     4   ar
    24    19    11    1
    25    19    15   ar
    26    21    24    1
    27    21    25    1
    28    12    20    1
@<TRIPOS>MOLECULE
*****
 25 28 0 0 0
SMALL
GASTEIGER

@<TRIPOS>ATOM
      1 C          66.3385   92.7900   11.5884 C.ar    1  UNL1        0.0531
      2 C          67.2713   92.6239   12.7513 C.ar    1  UNL1        0.0045
      3 C          66.8593   91.7934   13.9305 C.ar    1  UNL1        0.0001
      4 C          65.5146   91.1291   13.9469 C.ar    1  UNL1       -0.0002
      5 C          65.1026   90.2986   15.1261 C.ar    1  UNL1       -0.0017
      6 C          63.7579   89.6343   15.1425 C.ar    1  UNL1        0.0071
      7 C          62.8250   89.8004   13.9796 C.ar    1  UNL1       -0.0017
      8 C          63.2370   90.6309   12.8003 C.ar    1  UNL1       -0.0002
      9 C          64.5818   91.2952   12.7840 C.ar    1  UNL1        0.0001
     10 C          64.9938   92.1257   11.6048 C.ar    1  UNL1        0.0045
     11 C          63.3459   88.8038   16.3217 C.3     1  UNL1        0.1432
     12 O          63.0562   90.1317   16.9562 O.3     1  UNL1       -0.3770
     13 C          62.8734   88.2509   17.6336 C.3     1  UNL1        0.0614
     14 C          62.9572   86.7549   17.5633 C.3     1  UNL1        0.1105
     15 N          63.4815   86.3832   16.2080 N.ar    1  UNL1       -0.3101
     16 C          63.8573   85.2289   15.3269 C.ar    1  UNL1        0.1784
     17 N          64.3298   85.7817   14.0150 N.ar    1  UNL1       -0.2226
     18 C          64.2460   87.2778   14.0853 C.ar    1  UNL1        0.1160
     19 C          63.7217   87.6495   15.4406 C.ar    1  UNL1        0.0859
     20 H          62.7227   89.9939   17.8566 H       1  UNL1        0.2112
     21 N          65.7643   94.5486    9.7643 N.am    1  UNL1       -0.3253
     22 C          66.7505   93.6205   10.4092 C.2     1  UNL1        0.2427
     23 O          68.1486   93.5228    9.8748 O.2     1  UNL1       -0.2704
     24 H          66.0347   95.0937    8.9903 H       1  UNL1        0.1453
     25 H          64.8466   94.6128   10.1150 H       1  UNL1        0.1453
@<TRIPOS>BOND
     1    21    22   am
     2    22    23    2
     3    22     1    1
     4     1     2   ar
     5     2     3   ar
     6     3     4   ar
     7     4     5   ar
     8     5     6   ar
     9     6    11    1
    10    11    12    1
    11    11    13    1
    12    13    14    1
    13    14    15    1
    14    15    16   ar
    15    16    17   ar
    16    17    18   ar
    17    18    19   ar
    18     6     7   ar
    19     7     8   ar
    20     8     9   ar
    21     9    10   ar
    22    10     1   ar
    23     9     4   ar
    24    19    11    1
    25    19    15   ar
    26    21    24    1
    27    21    25    1
    28    12    20    1
@<TRIPOS>MOLECULE
*****
 25 28 0 0 0
SMALL
GASTEIGER

@<TRIPOS>ATOM
      1 C          67.0041   92.3326   13.8587 C.ar    1  UNL1        0.0531
      2 C          66.9193   92.7241   12.4132 C.ar    1  UNL1        0.0045
      3 C          65.7512   92.2804   11.5833 C.ar    1  UNL1        0.0001
      4 C          64.6680   91.4452   12.1988 C.ar    1  UNL1       -0.0002
      5 C          63.4999   91.0016   11.3689 C.ar    1  UNL1       -0.0017
      6 C          62.4166   90.1664   11.9844 C.ar    1  UNL1        0.0071
      7 C          62.5014   89.7749   13.4300 C.ar    1  UNL1       -0.0017
      8 C          63.6694   90.2185   14.2599 C.ar    1  UNL1       -0.0002
      9 C          64.7527   91.0537   13.6443 C.ar    1  UNL1        0.0001
     10 C          65.9208   91.4974   14.4743 C.ar    1  UNL1        0.0045
     11 C          61.2486   89.7227   11.1545 C.3     1  UNL1        0.1432
     12 O          60.9295   91.1874   11.1039 O.3     1  UNL1       -0.3770
     13 C          60.0138   89.5852   10.3140 C.3     1  UNL1        0.0614
     14 C          59.8140   88.1283   10.0187 C.3     1  UNL1        0.1105
     15 N          60.9252   87.3653   10.6767 N.ar    1  UNL1       -0.3101
     16 C          61.4885   85.9932   10.9008 C.ar    1  UNL1        0.1784
     17 N          62.7232   86.1306   11.7413 N.ar    1  UNL1       -0.2226
     18 C          62.9231   87.5877   12.0366 C.ar    1  UNL1        0.1160
     19 C          61.8118   88.3507   11.3786 C.ar    1  UNL1        0.0859
     20 H          60.1242   91.3251   10.5809 H       1  UNL1        0.2112
     21 N          69.5621   92.3566   14.3122 N.am    1  UNL1       -0.3253
     22 C          68.1721   92.7763   14.6886 C.2     1  UNL1        0.2427
     23 O          67.9502   93.6396   15.8950 O.2     1  UNL1       -0.2704
     24 H          70.3287   92.6478   14.8569 H       1  UNL1        0.1453
     25 H          69.7078   91.7900   13.5204 H       1  UNL1        0.1453
@<TRIPOS>BOND
     1    21    22   am
     2    22    23    2
     3    22     1    1
     4     1     2   ar
     5     2     3   ar
     6     3     4   ar
     7     4     5   ar
     8     5     6   ar
     9     6    11    1
    10    11    12    1
    11    11    13    1
    12    13    14    1
    13    14    15    1
    14    15    16   ar
    15    16    17   ar
    16    17    18   ar
    17    18    19   ar
    18     6     7   ar
    19     7     8   ar
    20     8     9   ar
    21     9    10   ar
    22    10     1   ar
    23     9     4   ar
    24    19    11    1
    25    19    15   ar
    26    21    24    1
    27    21    25    1
    28    12    20    1
@<TRIPOS>MOLECULE
*****
 25 28 0 0 0
SMALL
GASTEIGER

@<TRIPOS>ATOM
      1 C          63.8097   89.3628   14.2410 C.ar    1  UNL1        0.0531
      2 C          63.0650   89.3591   12.9390 C.ar    1  UNL1        0.0045
      3 C          62.8890   88.0778   12.1792 C.ar    1  UNL1        0.0001
      4 C          63.4577   86.8002   12.7215 C.ar    1  UNL1       -0.0002
      5 C          63.2817   85.5188   11.9618 C.ar    1  UNL1       -0.0017
      6 C          63.8504   84.2412   12.5041 C.ar    1  UNL1        0.0071
      7 C          64.5952   84.2448   13.8062 C.ar    1  UNL1       -0.0017
      8 C          64.7712   85.5261   14.5659 C.ar    1  UNL1       -0.0002
      9 C          64.2024   86.8038   14.0235 C.ar    1  UNL1        0.0001
     10 C          64.3784   88.0852   14.7833 C.ar    1  UNL1        0.0045
     11 C          63.6744   82.9598   11.7443 C.3     1  UNL1        0.1432
     12 O          64.5657   83.6197   10.7345 O.3     1  UNL1       -0.3770
     13 C          63.6847   81.8165   10.7735 C.3     1  UNL1        0.0614
     14 C          62.8365   80.7178   11.3422 C.3     1  UNL1        0.1105
     15 N          62.3020   81.1821   12.6646 N.ar    1  UNL1       -0.3101
     16 C          61.4474   80.7901   13.8333 C.ar    1  UNL1        0.1784
     17 N          61.4371   81.9334   14.8042 N.ar    1  UNL1       -0.2226
     18 C          62.2853   83.0321   14.2354 C.ar    1  UNL1        0.1160
     19 C          62.8198   82.5678   12.9131 C.ar    1  UNL1        0.0859
     20 H          64.7071   83.0188    9.9863 H       1  UNL1        0.2112
     21 N          63.4157   90.7819   16.3813 N.am    1  UNL1       -0.3253
     22 C          63.9857   90.6442   15.0007 C.2     1  UNL1        0.2427
     23 O          64.7318   91.7878   14.3799 O.2     1  UNL1       -0.2704
     24 H          63.5312   91.6229   16.8799 H       1  UNL1        0.1453
     25 H          62.9260   90.0313   16.7888 H       1  UNL1        0.1453
@<TRIPOS>BOND
     1    21    22   am
     2    22    23    2
     3    22     1    1
     4     1     2   ar
     5     2     3   ar
     6     3     4   ar
     7     4     5   ar
     8     5     6   ar
     9     6    11    1
    10    11    12    1
    11    11    13    1
    12    13    14    1
    13    14    15    1
    14    15    16   ar
    15    16    17   ar
    16    17    18   ar
    17    18    19   ar
    18     6     7   ar
    19     7     8   ar
    20     8     9   ar
    21     9    10   ar
    22    10     1   ar
    23     9     4   ar
    24    19    11    1
    25    19    15   ar
    26    21    24    1
    27    21    25    1
    28    12    20    1
@<TRIPOS>MOLECULE
*****
 25 28 0 0 0
SMALL
GASTEIGER

@<TRIPOS>ATOM
      1 C          62.1583   89.1138   10.4707 C.ar    1  UNL1        0.0531
      2 C          62.3349   88.2501   11.6842 C.ar    1  UNL1        0.0045
      3 C          63.1941   88.7199   12.8205 C.ar    1  UNL1        0.0001
      4 C          63.8767   90.0533   12.7432 C.ar    1  UNL1       -0.0002
      5 C          64.7359   90.5230   13.8795 C.ar    1  UNL1       -0.0017
      6 C          65.4185   91.8564   13.8022 C.ar    1  UNL1        0.0071
      7 C          65.2420   92.7202   12.5885 C.ar    1  UNL1       -0.0017
      8 C          64.3828   92.2504   11.4523 C.ar    1  UNL1       -0.0002
      9 C          63.7001   90.9169   11.5296 C.ar    1  UNL1        0.0001
     10 C          62.8409   90.4472   10.3933 C.ar    1  UNL1        0.0045
     11 C          66.2777   92.3261   14.9384 C.3     1  UNL1        0.1432
     12 O          64.9686   92.4998   15.6496 O.3     1  UNL1       -0.3770
     13 C          66.8633   92.8322   16.2234 C.3     1  UNL1        0.0614
     14 C          68.3547   92.8730   16.0688 C.3     1  UNL1        0.1105
     15 N          68.6910   92.3922   14.6883 N.ar    1  UNL1       -0.3101
     16 C          69.8206   92.1204   13.7395 C.ar    1  UNL1        0.1784
     17 N          69.2351   91.6143   12.4546 N.ar    1  UNL1       -0.2226
     18 C          67.7436   91.5735   12.6092 C.ar    1  UNL1        0.1160
     19 C          67.4074   92.0542   13.9897 C.ar    1  UNL1        0.0859
     20 H          65.1292   92.8363   16.5450 H       1  UNL1        0.2112
     21 N          60.4108   89.6150    8.6146 N.am    1  UNL1       -0.3253
     22 C          61.2991   88.6441    9.3344 C.2     1  UNL1        0.2427
     23 O          61.3282   87.2034    8.9179 O.2     1  UNL1       -0.2704
     24 H          59.8469   89.3067    7.8688 H       1  UNL1        0.1453
     25 H          60.3917   90.5606    8.8880 H       1  UNL1        0.1453
@<TRIPOS>BOND
     1    21    22   am
     2    22    23    2
     3    22     1    1
     4     1     2   ar
     5     2     3   ar
     6     3     4   ar
     7     4     5   ar
     8     5     6   ar
     9     6    11    1
    10    11    12    1
    11    11    13    1
    12    13    14    1
    13    14    15    1
    14    15    16   ar
    15    16    17   ar
    16    17    18   ar
    17    18    19   ar
    18     6     7   ar
    19     7     8   ar
    20     8     9   ar
    21     9    10   ar
    22    10     1   ar
    23     9     4   ar
    24    19    11    1
    25    19    15   ar
    26    21    24    1
    27    21    25    1
    28    12    20    1
