@<TRIPOS>MOLECULE
*****
 27 30 0 0 0
SMALL
GASTEIGER

@<TRIPOS>ATOM
      1 O          60.7490   89.5109    8.5656 O.2     1  UNL1       -0.2719
      2 C          61.2817   88.9523    9.8518 C.2     1  UNL1        0.2570
      3 N          62.3066   89.7182   10.6347 N.am    1  UNL1       -0.2738
      4 C          62.7988   91.0427   10.1315 C.3     1  UNL1        0.1149
      5 C          63.8237   91.8086   10.9145 C.3     1  UNL1        0.1121
      6 N          64.3564   91.2499   12.2006 N.pl3   1  UNL1       -0.3071
      7 C          63.8641   89.9254   12.7038 C.3     1  UNL1        0.1121
      8 C          62.8392   89.1595   11.9208 C.3     1  UNL1        0.1149
      9 C          65.3813   92.0158   12.9836 C.2     1  UNL1        0.0295
     10 C          65.6780   93.4441   12.6350 C.2     1  UNL1        0.0120
     11 C          66.7029   94.2100   13.4180 C.2     1  UNL1        0.0216
     12 C          67.4311   93.5474   14.5496 C.2     1  UNL1        0.1008
     13 N          68.4854   94.0455   15.4932 N.2     1  UNL1       -0.1482
     14 N          68.8402   92.9249   16.4250 N.2     1  UNL1       -0.1467
     15 C          68.0053   91.7342   16.0573 C.2     1  UNL1        0.1198
     16 C          67.1344   92.1189   14.8983 C.2     1  UNL1        0.0238
     17 C          66.1095   91.3532   14.1152 C.3     1  UNL1        0.0705
     18 C          60.7895   87.6277   10.3550 C.3     1  UNL1        0.2096
     19 O          59.4132   87.5121   10.9400 O.3     1  UNL1       -0.3719
     20 H          58.9786   88.3790   10.9178 H       1  UNL1        0.2114
     21 C          61.6737   86.4187   10.2731 C.ar    1  UNL1        0.0131
     22 C          61.9338   85.5954   11.4996 C.ar    1  UNL1       -0.0006
     23 C          62.8179   84.3864   11.4178 C.ar    1  UNL1        0.0112
     24 C          63.4420   84.0009   10.1094 C.ar    1  UNL1        0.0577
     25 CL         64.3262   82.7919   10.0276 Cl      1  UNL1       -0.0822
     26 C          63.1820   84.8242    8.8829 C.ar    1  UNL1        0.0112
     27 C          62.2977   86.0332    8.9648 C.ar    1  UNL1       -0.0006
@<TRIPOS>BOND
     1     1     2    2
     2     2    18    1
     3    18    19    1
     4    18    21    1
     5    21    22   ar
     6    22    23   ar
     7    23    24   ar
     8    24    25    1
     9    24    26   ar
    10    26    27   ar
    11     2     3   am
    12     3     4    1
    13     4     5    1
    14     5     6    1
    15     6     9    1
    16     9    10    2
    17    10    11    1
    18    11    12    2
    19    12    13    1
    20    13    14    2
    21    14    15    1
    22    15    16    2
    23    16    17    1
    24     6     7    1
    25     7     8    1
    26    27    21   ar
    27     8     3    1
    28    17     9    1
    29    16    12    1
    30    19    20    1
@<TRIPOS>MOLECULE
*****
 27 30 0 0 0
SMALL
GASTEIGER

@<TRIPOS>ATOM
      1 O          60.1337   89.3809    7.8582 O.2     1  UNL1       -0.2719
      2 C          60.6634   88.5096    8.9584 C.2     1  UNL1        0.2570
      3 N          61.5010   89.1064   10.0502 N.am    1  UNL1       -0.2738
      4 C          61.8090   90.5744   10.0420 C.3     1  UNL1        0.1149
      5 C          62.6466   91.1712   11.1339 C.3     1  UNL1        0.1121
      6 N          63.1763   90.2999   12.2340 N.pl3   1  UNL1       -0.3071
      7 C          62.8684   88.8319   12.2423 C.3     1  UNL1        0.1121
      8 C          62.0307   88.2352   11.1504 C.3     1  UNL1        0.1149
      9 C          64.0140   90.8967   13.3260 C.2     1  UNL1        0.0295
     10 C          63.6354   90.6858   14.7619 C.2     1  UNL1        0.0120
     11 C          64.4731   91.2825   15.8539 C.2     1  UNL1        0.0216
     12 C          65.6893   92.0902   15.5097 C.2     1  UNL1        0.1008
     13 N          66.7001   92.7961   16.3641 N.2     1  UNL1       -0.1482
     14 N          67.7033   93.4433   15.4560 N.2     1  UNL1       -0.1467
     15 C          67.3126   93.1374   14.0405 C.2     1  UNL1        0.1198
     16 C          66.0679   92.3011   14.0737 C.2     1  UNL1        0.0238
     17 C          65.2302   91.7043   12.9818 C.3     1  UNL1        0.0705
     18 C          60.3555   87.0416    8.9666 C.3     1  UNL1        0.2096
     19 O          58.9852   86.5606    8.5914 O.3     1  UNL1       -0.3719
     20 H          58.4243   87.3211    8.3726 H       1  UNL1        0.2114
     21 C          61.4180   86.0546    9.3502 C.ar    1  UNL1        0.0131
     22 C          62.4159   85.5926    8.3300 C.ar    1  UNL1       -0.0006
     23 C          63.4783   84.6057    8.7135 C.ar    1  UNL1        0.0112
     24 C          63.5429   84.0807   10.1172 C.ar    1  UNL1        0.0577
     25 CL         64.6054   83.0938   10.5007 Cl      1  UNL1       -0.0822
     26 C          62.5450   84.5427   11.1374 C.ar    1  UNL1        0.0112
     27 C          61.4825   85.5297   10.7538 C.ar    1  UNL1       -0.0006
@<TRIPOS>BOND
     1     1     2    2
     2     2    18    1
     3    18    19    1
     4    18    21    1
     5    21    22   ar
     6    22    23   ar
     7    23    24   ar
     8    24    25    1
     9    24    26   ar
    10    26    27   ar
    11     2     3   am
    12     3     4    1
    13     4     5    1
    14     5     6    1
    15     6     9    1
    16     9    10    2
    17    10    11    1
    18    11    12    2
    19    12    13    1
    20    13    14    2
    21    14    15    1
    22    15    16    2
    23    16    17    1
    24     6     7    1
    25     7     8    1
    26    27    21   ar
    27     8     3    1
    28    17     9    1
    29    16    12    1
    30    19    20    1
@<TRIPOS>MOLECULE
*****
 27 30 0 0 0
SMALL
GASTEIGER

@<TRIPOS>ATOM
      1 O          60.5097   89.3862    9.3128 O.2     1  UNL1       -0.2719
      2 C          61.3110   88.5794   10.2911 C.2     1  UNL1        0.2570
      3 N          62.2418   89.2669   11.2456 N.am    1  UNL1       -0.2738
      4 C          62.3713   90.7611   11.2217 C.3     1  UNL1        0.1149
      5 C          63.3022   91.4485   12.1762 C.3     1  UNL1        0.1121
      6 N          64.1034   90.6418   13.1544 N.pl3   1  UNL1       -0.3071
      7 C          63.9740   89.1476   13.1783 C.3     1  UNL1        0.1121
      8 C          63.0431   88.4601   12.2238 C.3     1  UNL1        0.1149
      9 C          65.0343   91.3292   14.1090 C.2     1  UNL1        0.0295
     10 C          64.5587   91.7047   15.4810 C.2     1  UNL1        0.0120
     11 C          65.4896   92.3921   16.4355 C.2     1  UNL1        0.0216
     12 C          66.8961   92.7040   16.0178 C.2     1  UNL1        0.1008
     13 N          68.0325   93.3687   16.7366 N.2     1  UNL1       -0.1482
     14 N          69.2105   93.4040   15.8086 N.2     1  UNL1       -0.1467
     15 C          68.8021   92.7611   14.5163 C.2     1  UNL1        0.1198
     16 C          67.3717   92.3285   14.6456 C.2     1  UNL1        0.0238
     17 C          66.4408   91.6411   13.6912 C.3     1  UNL1        0.0705
     18 C          61.1815   87.0852   10.3150 C.3     1  UNL1        0.2096
     19 O          60.8602   86.3807   11.5995 O.3     1  UNL1       -0.3719
     20 H          60.7690   87.0327   12.3119 H       1  UNL1        0.2114
     21 C          61.3734   86.2956    9.0541 C.ar    1  UNL1        0.0131
     22 C          60.2381   86.1411    8.0859 C.ar    1  UNL1       -0.0006
     23 C          60.4299   85.3515    6.8251 C.ar    1  UNL1        0.0112
     24 C          61.7570   84.7165    6.5323 C.ar    1  UNL1        0.0577
     25 CL         61.9488   83.9269    5.2715 Cl      1  UNL1       -0.0822
     26 C          62.8922   84.8710    7.5004 C.ar    1  UNL1        0.0112
     27 C          62.7004   85.6607    8.7614 C.ar    1  UNL1       -0.0006
@<TRIPOS>BOND
     1     1     2    2
     2     2    18    1
     3    18    19    1
     4    18    21    1
     5    21    22   ar
     6    22    23   ar
     7    23    24   ar
     8    24    25    1
     9    24    26   ar
    10    26    27   ar
    11     2     3   am
    12     3     4    1
    13     4     5    1
    14     5     6    1
    15     6     9    1
    16     9    10    2
    17    10    11    1
    18    11    12    2
    19    12    13    1
    20    13    14    2
    21    14    15    1
    22    15    16    2
    23    16    17    1
    24     6     7    1
    25     7     8    1
    26    27    21   ar
    27     8     3    1
    28    17     9    1
    29    16    12    1
    30    19    20    1
@<TRIPOS>MOLECULE
*****
 27 30 0 0 0
SMALL
GASTEIGER

@<TRIPOS>ATOM
      1 O          62.0796   85.3053   12.3029 O.2     1  UNL1       -0.2719
      2 C          62.0692   86.7199   11.8041 C.2     1  UNL1        0.2570
      3 N          62.9011   87.7630   12.4895 N.am    1  UNL1       -0.2738
      4 C          63.7436   87.3915   13.6736 C.3     1  UNL1        0.1149
      5 C          64.5756   88.4347   14.3590 C.3     1  UNL1        0.1121
      6 N          64.5651   89.8493   13.8602 N.pl3   1  UNL1       -0.3071
      7 C          63.7226   90.2208   12.6761 C.3     1  UNL1        0.1121
      8 C          62.8906   89.1777   11.9907 C.3     1  UNL1        0.1149
      9 C          65.3970   90.8925   14.5456 C.2     1  UNL1        0.0295
     10 C          64.8196   91.6864   15.6796 C.2     1  UNL1        0.0120
     11 C          65.6516   92.7296   16.3650 C.2     1  UNL1        0.0216
     12 C          67.0610   92.9787   15.9161 C.2     1  UNL1        0.1008
     13 N          68.1133   93.9337   16.3965 N.2     1  UNL1       -0.1482
     14 N          69.3411   93.7299   15.5592 N.2     1  UNL1       -0.1467
     15 C          69.0476   92.6490   14.5614 C.2     1  UNL1        0.1198
     16 C          67.6384   92.1848   14.7820 C.2     1  UNL1        0.0238
     17 C          66.8065   91.1416   14.0967 C.3     1  UNL1        0.0705
     18 C          61.2267   87.0915   10.6200 C.3     1  UNL1        0.2096
     19 O          60.2145   88.1923   10.7354 O.3     1  UNL1       -0.3719
     20 H          60.2330   88.5555   11.6347 H       1  UNL1        0.2114
     21 C          61.3966   86.3620    9.3203 C.ar    1  UNL1        0.0131
     22 C          62.7184   85.7426    8.9751 C.ar    1  UNL1       -0.0006
     23 C          62.8883   85.0132    7.6755 C.ar    1  UNL1        0.0112
     24 C          61.7364   84.9032    6.7210 C.ar    1  UNL1        0.0577
     25 CL         61.9064   84.1737    5.4214 Cl      1  UNL1       -0.0822
     26 C          60.4146   85.5226    7.0661 C.ar    1  UNL1        0.0112
     27 C          60.2448   86.2520    8.3658 C.ar    1  UNL1       -0.0006
@<TRIPOS>BOND
     1     1     2    2
     2     2    18    1
     3    18    19    1
     4    18    21    1
     5    21    22   ar
     6    22    23   ar
     7    23    24   ar
     8    24    25    1
     9    24    26   ar
    10    26    27   ar
    11     2     3   am
    12     3     4    1
    13     4     5    1
    14     5     6    1
    15     6     9    1
    16     9    10    2
    17    10    11    1
    18    11    12    2
    19    12    13    1
    20    13    14    2
    21    14    15    1
    22    15    16    2
    23    16    17    1
    24     6     7    1
    25     7     8    1
    26    27    21   ar
    27     8     3    1
    28    17     9    1
    29    16    12    1
    30    19    20    1
@<TRIPOS>MOLECULE
*****
 27 30 0 0 0
SMALL
GASTEIGER

@<TRIPOS>ATOM
      1 O          61.9476   86.1871   12.4746 O.2     1  UNL1       -0.2719
      2 C          61.7263   87.2554   11.4451 C.2     1  UNL1        0.2570
      3 N          62.5018   88.5374   11.5159 N.am    1  UNL1       -0.2738
      4 C          63.4987   88.7511   12.6161 C.3     1  UNL1        0.1149
      5 C          64.2742   90.0332   12.6868 C.3     1  UNL1        0.1121
      6 N          64.0528   91.1014   11.6574 N.pl3   1  UNL1       -0.3071
      7 C          63.0559   90.8877   10.5572 C.3     1  UNL1        0.1121
      8 C          62.2804   89.6057   10.4864 C.3     1  UNL1        0.1149
      9 C          64.8283   92.3835   11.7281 C.2     1  UNL1        0.0295
     10 C          65.5388   92.7615   12.9938 C.2     1  UNL1        0.0120
     11 C          66.3143   94.0436   13.0645 C.2     1  UNL1        0.0216
     12 C          66.3792   94.9476   11.8693 C.2     1  UNL1        0.1008
     13 N          67.0603   96.2648   11.6431 N.2     1  UNL1       -0.1482
     14 N          66.7707   96.7008   10.2374 N.2     1  UNL1       -0.1467
     15 C          65.9107   95.6532    9.5949 C.2     1  UNL1        0.1198
     16 C          65.6687   94.5696   10.6035 C.2     1  UNL1        0.0238
     17 C          64.8933   93.2876   10.5329 C.3     1  UNL1        0.0705
     18 C          60.7294   87.0417   10.3449 C.3     1  UNL1        0.2096
     19 O          59.3322   87.5687   10.4860 O.3     1  UNL1       -0.3719
     20 H          59.2410   88.0184   11.3406 H       1  UNL1        0.2114
     21 C          61.1298   86.3008    9.1035 C.ar    1  UNL1        0.0131
     22 C          62.5197   85.7522    8.9731 C.ar    1  UNL1       -0.0006
     23 C          62.9202   85.0114    7.7318 C.ar    1  UNL1        0.0112
     24 C          61.9307   84.8192    6.6210 C.ar    1  UNL1        0.0577
     25 CL         62.3312   84.0783    5.3797 Cl      1  UNL1       -0.0822
     26 C          60.5407   85.3678    6.7514 C.ar    1  UNL1        0.0112
     27 C          60.1403   86.1086    7.9928 C.ar    1  UNL1       -0.0006
@<TRIPOS>BOND
     1     1     2    2
     2     2    18    1
     3    18    19    1
     4    18    21    1
     5    21    22   ar
     6    22    23   ar
     7    23    24   ar
     8    24    25    1
     9    24    26   ar
    10    26    27   ar
    11     2     3   am
    12     3     4    1
    13     4     5    1
    14     5     6    1
    15     6     9    1
    16     9    10    2
    17    10    11    1
    18    11    12    2
    19    12    13    1
    20    13    14    2
    21    14    15    1
    22    15    16    2
    23    16    17    1
    24     6     7    1
    25     7     8    1
    26    27    21   ar
    27     8     3    1
    28    17     9    1
    29    16    12    1
    30    19    20    1
@<TRIPOS>MOLECULE
*****
 27 30 0 0 0
SMALL
GASTEIGER

@<TRIPOS>ATOM
      1 O          60.0633   90.6555    9.1609 O.2     1  UNL1       -0.2719
      2 C          59.9800   89.3134    8.4962 C.2     1  UNL1        0.2570
      3 N          60.6613   88.1277    9.1124 N.am    1  UNL1       -0.2738
      4 C          61.4259   88.2840   10.3933 C.3     1  UNL1        0.1149
      5 C          62.1073   87.0981   11.0095 C.3     1  UNL1        0.1121
      6 N          62.0239   85.7561   10.3448 N.pl3   1  UNL1       -0.3071
      7 C          61.2593   85.5998    9.0639 C.3     1  UNL1        0.1121
      8 C          60.5780   86.7856    8.4477 C.3     1  UNL1        0.1149
      9 C          62.7052   84.5702   10.9610 C.2     1  UNL1        0.0295
     10 C          63.7116   83.7886   10.1698 C.2     1  UNL1        0.0120
     11 C          64.3929   82.6027   10.7860 C.2     1  UNL1        0.0216
     12 C          64.0677   82.1986   12.1934 C.2     1  UNL1        0.1008
     13 N          64.5743   81.0840   13.0601 N.2     1  UNL1       -0.1482
     14 N          63.8809   81.1769   14.3869 N.2     1  UNL1       -0.1467
     15 C          62.9458   82.3488   14.3403 C.2     1  UNL1        0.1198
     16 C          63.0613   82.9803   12.9847 C.2     1  UNL1        0.0238
     17 C          62.3800   84.1661   12.3684 C.3     1  UNL1        0.0705
     18 C          59.2153   89.1571    7.2152 C.3     1  UNL1        0.2096
     19 O          58.3016   87.9829    7.0257 O.3     1  UNL1       -0.3719
     20 H          58.3213   87.4264    7.8200 H       1  UNL1        0.2114
     21 C          59.3645   90.1753    6.1238 C.ar    1  UNL1        0.0131
     22 C          58.1584   90.9005    5.6048 C.ar    1  UNL1       -0.0006
     23 C          58.3076   91.9186    4.5134 C.ar    1  UNL1        0.0112
     24 C          59.6628   92.2115    3.9409 C.ar    1  UNL1        0.0577
     25 CL         59.8119   93.2296    2.8495 Cl      1  UNL1       -0.0822
     26 C          60.8688   91.4862    4.4599 C.ar    1  UNL1        0.0112
     27 C          60.7197   90.4681    5.5513 C.ar    1  UNL1       -0.0006
@<TRIPOS>BOND
     1     1     2    2
     2     2    18    1
     3    18    19    1
     4    18    21    1
     5    21    22   ar
     6    22    23   ar
     7    23    24   ar
     8    24    25    1
     9    24    26   ar
    10    26    27   ar
    11     2     3   am
    12     3     4    1
    13     4     5    1
    14     5     6    1
    15     6     9    1
    16     9    10    2
    17    10    11    1
    18    11    12    2
    19    12    13    1
    20    13    14    2
    21    14    15    1
    22    15    16    2
    23    16    17    1
    24     6     7    1
    25     7     8    1
    26    27    21   ar
    27     8     3    1
    28    17     9    1
    29    16    12    1
    30    19    20    1
@<TRIPOS>MOLECULE
*****
 27 30 0 0 0
SMALL
GASTEIGER

@<TRIPOS>ATOM
      1 O          61.9940   85.6255   17.4870 O.2     1  UNL1       -0.2719
      2 C          62.9396   85.6587   16.3232 C.2     1  UNL1        0.2570
      3 N          63.4722   86.9701   15.8267 N.am    1  UNL1       -0.2738
      4 C          63.0591   88.2484   16.4941 C.3     1  UNL1        0.1149
      5 C          63.5917   89.5598   15.9976 C.3     1  UNL1        0.1121
      6 N          64.5373   89.5930   14.8338 N.pl3   1  UNL1       -0.3071
      7 C          64.9504   88.3148   14.1663 C.3     1  UNL1        0.1121
      8 C          64.4178   87.0034   14.6628 C.3     1  UNL1        0.1149
      9 C          65.0700   90.9045   14.3372 C.2     1  UNL1        0.0295
     10 C          65.8043   91.8183   15.2728 C.2     1  UNL1        0.0120
     11 C          66.3369   93.1298   14.7763 C.2     1  UNL1        0.0216
     12 C          66.1351   93.5273   13.3441 C.2     1  UNL1        0.1008
     13 N          66.5437   94.7480   12.5742 N.2     1  UNL1       -0.1482
     14 N          66.0618   94.5886   11.1627 N.2     1  UNL1       -0.1467
     15 C          65.3555   93.2693   11.0602 C.2     1  UNL1        0.1198
     16 C          65.4007   92.6133   12.4084 C.2     1  UNL1        0.0238
     17 C          64.8682   91.3019   12.9050 C.3     1  UNL1        0.0705
     18 C          63.3527   84.3805   15.6557 C.3     1  UNL1        0.2096
     19 O          63.7424   83.1932   16.4853 O.3     1  UNL1       -0.3719
     20 H          63.6727   83.4191   17.4260 H       1  UNL1        0.2114
     21 C          63.3761   84.2897   14.1586 C.ar    1  UNL1        0.0131
     22 C          62.3110   84.9686   13.3494 C.ar    1  UNL1       -0.0006
     23 C          62.3343   84.8778   11.8523 C.ar    1  UNL1        0.0112
     24 C          63.4227   84.1083   11.1645 C.ar    1  UNL1        0.0577
     25 CL         63.4460   84.0175    9.6674 Cl      1  UNL1       -0.0822
     26 C          64.4878   83.4294   11.9736 C.ar    1  UNL1        0.0112
     27 C          64.4644   83.5202   13.4708 C.ar    1  UNL1       -0.0006
@<TRIPOS>BOND
     1     1     2    2
     2     2    18    1
     3    18    19    1
     4    18    21    1
     5    21    22   ar
     6    22    23   ar
     7    23    24   ar
     8    24    25    1
     9    24    26   ar
    10    26    27   ar
    11     2     3   am
    12     3     4    1
    13     4     5    1
    14     5     6    1
    15     6     9    1
    16     9    10    2
    17    10    11    1
    18    11    12    2
    19    12    13    1
    20    13    14    2
    21    14    15    1
    22    15    16    2
    23    16    17    1
    24     6     7    1
    25     7     8    1
    26    27    21   ar
    27     8     3    1
    28    17     9    1
    29    16    12    1
    30    19    20    1
