@<TRIPOS>MOLECULE
*****
 56 60 0 0 0
SMALL
GASTEIGER

@<TRIPOS>ATOM
      1 C          62.5603   90.2729   11.9492 C.2     1  UNL1        0.2404
      2 O          61.3051   89.7558   12.5874 O.2     1  UNL1       -0.2733
      3 N          63.8347   90.3289   12.7383 N.am    1  UNL1       -0.3042
      4 H          64.6585   90.6683   12.3195 H       1  UNL1        0.1494
      5 C          63.8540   89.8679   14.1656 C.3     1  UNL1        0.0777
      6 C          63.4358   88.4685   14.5075 C.3     1  UNL1        0.0415
      7 C          64.4723   87.4344   14.8334 C.3     1  UNL1        0.0988
      8 N          64.0833   85.9895   14.9379 N.am    1  UNL1       -0.2418
      9 C          63.2187   85.5257   16.0724 C.2     1  UNL1        0.4055
     10 O          62.7429   86.5068   17.1025 O.2     1  UNL1       -0.2262
     11 C          64.5590   85.0084   13.9078 C.3     1  UNL1        0.1243
     12 C          63.7762   84.8092   12.6439 C.ar    1  UNL1        0.0084
     13 C          62.6861   85.7720   12.2772 C.ar    1  UNL1       -0.0018
     14 C          61.9032   85.5728   11.0133 C.ar    1  UNL1       -0.0002
     15 C          62.2105   84.4107   10.1161 C.ar    1  UNL1        0.0008
     16 C          63.3007   83.4478   10.4827 C.ar    1  UNL1        0.0111
     17 C          64.0835   83.6470   11.7466 C.ar    1  UNL1        0.0553
     18 CL         65.1736   82.6842   12.1133 Cl      1  UNL1       -0.0825
     19 O          62.8297   84.0808   16.1768 O.3     1  UNL1       -0.4289
     20 C          61.9357   83.4679   15.1398 C.3     1  UNL1        0.2447
     21 C          62.2457   82.1061   14.5926 C.ar    1  UNL1        0.0714
     22 C          63.5809   81.4235   14.6308 C.ar    1  UNL1        0.1053
     23 N          63.4352   80.0833   13.9730 N.ar    1  UNL1       -0.2350
     24 C          62.0101   79.9376   13.5282 C.ar    1  UNL1        0.1343
     25 S          61.2749   81.1878   13.9112 S.2     1  UNL1       -0.0652
     26 C          64.2915   90.8062   15.2510 C.3     1  UNL1        0.0459
     27 C          65.6149   91.5049   15.1499 C.ar    1  UNL1       -0.0205
     28 C          66.0515   92.4450   16.2342 C.ar    1  UNL1       -0.0042
     29 C          67.3750   93.1438   16.1331 C.ar    1  UNL1       -0.0003
     30 C          68.2619   92.9024   14.9477 C.ar    1  UNL1       -0.0000
     31 C          67.8253   91.9623   13.8635 C.ar    1  UNL1       -0.0003
     32 C          66.5019   91.2636   13.9645 C.ar    1  UNL1       -0.0042
     33 C          62.5410   90.7339   10.5220 C.3     1  UNL1        0.1511
     34 N          60.2834   88.4453    8.1950 N.am    1  UNL1       -0.2567
     35 C          60.2369   87.0312    7.6970 C.3     1  UNL1        0.1168
     36 C          61.3890   88.8825    9.1095 C.2     1  UNL1        0.3046
     37 O          62.4482   87.9056    9.5261 O.2     1  UNL1       -0.2526
     38 N          61.4354   90.2967    9.6074 N.am    1  UNL1       -0.2824
     39 H          60.7402   90.9379    9.3340 H       1  UNL1        0.1514
     40 C          59.2241   89.4222    7.7783 C.3     1  UNL1        0.1413
     41 C          60.4004   91.3103    4.5976 C.ar    1  UNL1        0.0875
     42 N          60.6870   90.4434    5.7877 N.ar    1  UNL1       -0.2453
     43 C          59.3989   90.2293    6.5261 C.ar    1  UNL1        0.0858
     44 C          58.3164   90.9639    5.7923 C.ar    1  UNL1        0.0530
     45 S          58.9353   91.6321    4.6005 S.2     1  UNL1       -0.0705
     46 C          61.0300   92.8357    2.5910 C.3     1  UNL1        0.0069
     47 C          61.4030   91.7741    3.5829 C.3     1  UNL1        0.0465
     48 C          62.7785   91.1763    3.5600 C.3     1  UNL1        0.0069
     49 C          63.6275   91.6322   10.0092 C.3     1  UNL1        0.0463
     50 C          64.5119   92.3655   10.9736 C.3     1  UNL1        0.0745
     51 N          65.7339   93.0795   10.4766 N.3     1  UNL1       -0.2684
     52 C          65.7559   94.5782   10.4204 C.3     1  UNL1        0.1046
     53 C          66.9779   95.2922    9.9234 C.3     1  UNL1        0.1595
     54 O          68.1778   94.5074    9.4827 O.3     1  UNL1       -0.3508
     55 C          68.1558   93.0086    9.5389 C.3     1  UNL1        0.1595
     56 C          66.9338   92.2947   10.0359 C.3     1  UNL1        0.1046
@<TRIPOS>BOND
     1    46    47    1
     2    47    48    1
     3    47    41    1
     4    41    42   ar
     5    42    43   ar
     6    43    40    1
     7    40    34    1
     8    34    35    1
     9    34    36   am
    10    36    37    2
    11    36    38   am
    12    38    33    1
    13    33    49    1
    14    49    50    1
    15    50    51    1
    16    51    52    1
    17    52    53    1
    18    53    54    1
    19    54    55    1
    20    55    56    1
    21    33     1    1
    22     1     2    2
    23     1     3   am
    24     3     5    1
    25     5     6    1
    26     6     7    1
    27     7     8    1
    28     8    11    1
    29    11    12    1
    30    12    13   ar
    31    13    14   ar
    32    14    15   ar
    33    15    16   ar
    34    16    17   ar
    35    17    18    1
    36     8     9   am
    37     9    10    2
    38     9    19    1
    39    19    20    1
    40    20    21    1
    41    21    22   ar
    42    22    23   ar
    43    23    24   ar
    44    24    25   ar
    45     5    26    1
    46    26    27    1
    47    27    28   ar
    48    28    29   ar
    49    29    30   ar
    50    30    31   ar
    51    31    32   ar
    52    43    44   ar
    53    44    45   ar
    54    45    41   ar
    55    56    51    1
    56    17    12   ar
    57    25    21   ar
    58    32    27   ar
    59    38    39    1
    60     3     4    1
@<TRIPOS>MOLECULE
*****
 56 60 0 0 0
SMALL
GASTEIGER

@<TRIPOS>ATOM
      1 C          60.4945   89.7118    9.3583 C.2     1  UNL1        0.2404
      2 O          59.6133   90.4908   10.2892 O.2     1  UNL1       -0.2733
      3 N          61.9016   89.3806    9.7589 N.am    1  UNL1       -0.3042
      4 H          62.4799   88.8694    9.1479 H       1  UNL1        0.1494
      5 C          62.4274   89.8284   11.0905 C.3     1  UNL1        0.0777
      6 C          62.5966   88.8358   12.2023 C.3     1  UNL1        0.0415
      7 C          62.7110   87.3730   11.8908 C.3     1  UNL1        0.0988
      8 N          63.4842   86.4697   12.8053 N.am    1  UNL1       -0.2418
      9 C          63.4466   84.9843   12.6000 C.2     1  UNL1        0.4055
     10 O          62.6358   84.4022   11.4802 O.2     1  UNL1       -0.2262
     11 C          64.2949   87.0518   13.9250 C.3     1  UNL1        0.1243
     12 C          63.7631   87.0276   15.3274 C.ar    1  UNL1        0.0084
     13 C          63.4887   85.7167   16.0029 C.ar    1  UNL1       -0.0018
     14 C          62.9569   85.6925   17.4052 C.ar    1  UNL1       -0.0002
     15 C          62.6995   86.9791   18.1321 C.ar    1  UNL1        0.0008
     16 C          62.9740   88.2901   17.4565 C.ar    1  UNL1        0.0111
     17 C          63.5058   88.3143   16.0542 C.ar    1  UNL1        0.0553
     18 CL         63.7802   89.6251   15.3786 Cl      1  UNL1       -0.0825
     19 O          64.2198   84.0810   13.5145 O.3     1  UNL1       -0.4289
     20 C          64.2535   82.6036   13.2568 C.3     1  UNL1        0.2447
     21 C          63.0409   81.7658   13.5356 C.ar    1  UNL1        0.0714
     22 C          61.8679   82.1662   14.3806 C.ar    1  UNL1        0.1053
     23 N          60.8904   81.0283   14.3855 N.ar    1  UNL1       -0.2350
     24 C          61.4593   79.9248   13.5437 C.ar    1  UNL1        0.1343
     25 S          62.7884   80.3806   13.0185 S.2     1  UNL1       -0.0652
     26 C          62.7840   91.2687   11.3102 C.3     1  UNL1        0.0459
     27 C          64.1816   91.6434   11.7054 C.ar    1  UNL1       -0.0205
     28 C          65.1045   92.2646   10.6992 C.ar    1  UNL1       -0.0042
     29 C          66.5022   92.6393   11.0944 C.ar    1  UNL1       -0.0003
     30 C          66.9770   92.3928   12.4957 C.ar    1  UNL1       -0.0000
     31 C          66.0541   91.7715   13.5019 C.ar    1  UNL1       -0.0003
     32 C          64.6565   91.3968   13.1067 C.ar    1  UNL1       -0.0042
     33 C          59.9688   89.2641    8.0267 C.3     1  UNL1        0.1511
     34 N          59.6698   91.3643    4.6727 N.am    1  UNL1       -0.2567
     35 C          58.6072   91.9777    3.8099 C.3     1  UNL1        0.1168
     36 C          59.2880   90.6209    5.9183 C.2     1  UNL1        0.3046
     37 O          57.8435   90.4909    6.3011 O.2     1  UNL1       -0.2526
     38 N          60.3506   90.0075    6.7811 N.am    1  UNL1       -0.2824
     39 H          61.2987   90.0927    6.5298 H       1  UNL1        0.1514
     40 C          61.1142   91.4942    4.2898 C.3     1  UNL1        0.1413
     41 C          62.7708   93.2810    1.2684 C.ar    1  UNL1        0.0875
     42 N          62.8103   92.2681    2.3742 N.ar    1  UNL1       -0.2453
     43 C          61.5048   92.3343    3.1101 C.ar    1  UNL1        0.0858
     44 C          60.6586   93.3879    2.4592 C.ar    1  UNL1        0.0530
     45 S          61.4410   93.9730    1.3209 S.2     1  UNL1       -0.0705
     46 C          65.3011   93.5102    0.7254 C.3     1  UNL1        0.0069
     47 C          63.8684   93.5538    0.2832 C.3     1  UNL1        0.0465
     48 C          63.5334   93.8702   -1.1443 C.3     1  UNL1        0.0069
     49 C          59.0611   88.0729    7.9408 C.3     1  UNL1        0.0463
     50 C          59.4677   86.7733    8.5698 C.3     1  UNL1        0.0745
     51 N          60.6377   86.0095    8.0241 N.3     1  UNL1       -0.2684
     52 C          61.9521   86.0340    8.7464 C.3     1  UNL1        0.1046
     53 C          63.1221   85.2703    8.2007 C.3     1  UNL1        0.1595
     54 O          62.9776   84.4820    6.9327 O.3     1  UNL1       -0.3508
     55 C          61.6632   84.4574    6.2104 C.3     1  UNL1        0.1595
     56 C          60.4933   85.2212    6.7561 C.3     1  UNL1        0.1046
@<TRIPOS>BOND
     1    46    47    1
     2    47    48    1
     3    47    41    1
     4    41    42   ar
     5    42    43   ar
     6    43    40    1
     7    40    34    1
     8    34    35    1
     9    34    36   am
    10    36    37    2
    11    36    38   am
    12    38    33    1
    13    33    49    1
    14    49    50    1
    15    50    51    1
    16    51    52    1
    17    52    53    1
    18    53    54    1
    19    54    55    1
    20    55    56    1
    21    33     1    1
    22     1     2    2
    23     1     3   am
    24     3     5    1
    25     5     6    1
    26     6     7    1
    27     7     8    1
    28     8    11    1
    29    11    12    1
    30    12    13   ar
    31    13    14   ar
    32    14    15   ar
    33    15    16   ar
    34    16    17   ar
    35    17    18    1
    36     8     9   am
    37     9    10    2
    38     9    19    1
    39    19    20    1
    40    20    21    1
    41    21    22   ar
    42    22    23   ar
    43    23    24   ar
    44    24    25   ar
    45     5    26    1
    46    26    27    1
    47    27    28   ar
    48    28    29   ar
    49    29    30   ar
    50    30    31   ar
    51    31    32   ar
    52    43    44   ar
    53    44    45   ar
    54    45    41   ar
    55    56    51    1
    56    17    12   ar
    57    25    21   ar
    58    32    27   ar
    59    38    39    1
    60     3     4    1
@<TRIPOS>MOLECULE
*****
 56 60 0 0 0
SMALL
GASTEIGER

@<TRIPOS>ATOM
      1 C          60.3463   89.2419    9.2171 C.2     1  UNL1        0.2404
      2 O          59.4094   89.6634   10.3100 O.2     1  UNL1       -0.2733
      3 N          61.8134   89.1056    9.4981 N.am    1  UNL1       -0.3042
      4 H          62.4284   88.8289    8.7808 H       1  UNL1        0.1494
      5 C          62.3436   89.3907   10.8721 C.3     1  UNL1        0.0777
      6 C          62.7441   88.2589   11.7712 C.3     1  UNL1        0.0415
      7 C          62.3469   86.8533   11.4300 C.3     1  UNL1        0.0988
      8 N          63.0846   85.6970   12.0373 N.am    1  UNL1       -0.2418
      9 C          63.8333   85.8778   13.3245 C.2     1  UNL1        0.4055
     10 O          63.8442   87.2148   14.0044 O.2     1  UNL1       -0.2262
     11 C          63.0737   84.3600   11.3575 C.3     1  UNL1        0.1243
     12 C          62.7267   83.1256   12.1358 C.ar    1  UNL1        0.0084
     13 C          62.0005   83.2427   13.4431 C.ar    1  UNL1       -0.0018
     14 C          61.6535   82.0083   14.2214 C.ar    1  UNL1       -0.0002
     15 C          62.0327   80.6568   13.6925 C.ar    1  UNL1        0.0008
     16 C          62.7589   80.5397   12.3852 C.ar    1  UNL1        0.0111
     17 C          63.1059   81.7741   11.6069 C.ar    1  UNL1        0.0553
     18 CL         63.8321   81.6571   10.2996 Cl      1  UNL1       -0.0825
     19 O          64.5710   84.7215   13.9318 O.3     1  UNL1       -0.4289
     20 C          64.3308   84.3478   15.3645 C.3     1  UNL1        0.2447
     21 C          63.3981   85.1666   16.2069 C.ar    1  UNL1        0.0714
     22 C          61.9001   85.0892   16.1936 C.ar    1  UNL1        0.1053
     23 N          61.3759   86.0814   17.1890 N.ar    1  UNL1       -0.2350
     24 C          62.5498   86.7719   17.8175 C.ar    1  UNL1        0.1343
     25 S          63.7996   86.2066   17.2106 S.2     1  UNL1       -0.0652
     26 C          62.4732   90.8077   11.3467 C.3     1  UNL1        0.0459
     27 C          63.8122   91.3390   11.7648 C.ar    1  UNL1       -0.0205
     28 C          64.2867   91.1508   13.1752 C.ar    1  UNL1       -0.0042
     29 C          65.6258   91.6822   13.5932 C.ar    1  UNL1       -0.0003
     30 C          66.4902   92.4018   12.6008 C.ar    1  UNL1       -0.0000
     31 C          66.0157   92.5900   11.1904 C.ar    1  UNL1       -0.0003
     32 C          64.6767   92.0586   10.7723 C.ar    1  UNL1       -0.0042
     33 C          59.8162   88.9567    7.8432 C.3     1  UNL1        0.1511
     34 N          59.3897   91.4086    4.7519 N.am    1  UNL1       -0.2567
     35 C          58.2918   92.0267    3.9380 C.3     1  UNL1        0.1168
     36 C          59.0540   90.4917    5.8906 C.2     1  UNL1        0.3046
     37 O          57.6204   90.1929    6.2154 O.2     1  UNL1       -0.2526
     38 N          60.1519   89.8736    6.7045 N.am    1  UNL1       -0.2824
     39 H          61.0928   90.0697    6.4914 H       1  UNL1        0.1514
     40 C          60.8232   91.7074    4.4272 C.3     1  UNL1        0.1413
     41 C          62.3025   93.3274    1.2251 C.ar    1  UNL1        0.0875
     42 N          62.3575   92.3050    2.3214 N.ar    1  UNL1       -0.2453
     43 C          61.1642   92.5103    3.2069 C.ar    1  UNL1        0.0858
     44 C          60.3718   93.6595    2.6578 C.ar    1  UNL1        0.0530
     45 S          61.0752   94.1645    1.4330 S.2     1  UNL1       -0.0705
     46 C          64.7619   93.5941    0.4315 C.3     1  UNL1        0.0069
     47 C          63.2996   93.4849    0.1157 C.3     1  UNL1        0.0465
     48 C          62.8345   93.5333   -1.3096 C.3     1  UNL1        0.0069
     49 C          58.9504   87.7545    7.6080 C.3     1  UNL1        0.0463
     50 C          59.3576   86.4184    8.1547 C.3     1  UNL1        0.0745
     51 N          60.5961   85.7444    7.6429 N.3     1  UNL1       -0.2684
     52 C          61.8860   85.8724    8.3976 C.3     1  UNL1        0.1046
     53 C          63.1244   85.1984    7.8858 C.3     1  UNL1        0.1595
     54 O          63.0729   84.3964    6.6193 O.3     1  UNL1       -0.3508
     55 C          61.7829   84.2684    5.8646 C.3     1  UNL1        0.1595
     56 C          60.5445   84.9424    6.3764 C.3     1  UNL1        0.1046
@<TRIPOS>BOND
     1    46    47    1
     2    47    48    1
     3    47    41    1
     4    41    42   ar
     5    42    43   ar
     6    43    40    1
     7    40    34    1
     8    34    35    1
     9    34    36   am
    10    36    37    2
    11    36    38   am
    12    38    33    1
    13    33    49    1
    14    49    50    1
    15    50    51    1
    16    51    52    1
    17    52    53    1
    18    53    54    1
    19    54    55    1
    20    55    56    1
    21    33     1    1
    22     1     2    2
    23     1     3   am
    24     3     5    1
    25     5     6    1
    26     6     7    1
    27     7     8    1
    28     8    11    1
    29    11    12    1
    30    12    13   ar
    31    13    14   ar
    32    14    15   ar
    33    15    16   ar
    34    16    17   ar
    35    17    18    1
    36     8     9   am
    37     9    10    2
    38     9    19    1
    39    19    20    1
    40    20    21    1
    41    21    22   ar
    42    22    23   ar
    43    23    24   ar
    44    24    25   ar
    45     5    26    1
    46    26    27    1
    47    27    28   ar
    48    28    29   ar
    49    29    30   ar
    50    30    31   ar
    51    31    32   ar
    52    43    44   ar
    53    44    45   ar
    54    45    41   ar
    55    56    51    1
    56    17    12   ar
    57    25    21   ar
    58    32    27   ar
    59    38    39    1
    60     3     4    1
@<TRIPOS>MOLECULE
*****
 56 60 0 0 0
SMALL
GASTEIGER

@<TRIPOS>ATOM
      1 C          62.2457   86.6395   11.0491 C.2     1  UNL1        0.2404
      2 O          61.1287   87.0972   11.9396 O.2     1  UNL1       -0.2733
      3 N          62.9556   87.6255   10.1695 N.am    1  UNL1       -0.3042
      4 H          63.6887   87.3251    9.5850 H       1  UNL1        0.1494
      5 C          62.5486   89.0692   10.1803 C.3     1  UNL1        0.0777
      6 C          63.5952   90.1433   10.2118 C.3     1  UNL1        0.0415
      7 C          63.3044   91.4546   10.8795 C.3     1  UNL1        0.0988
      8 N          64.0397   91.8393   12.1290 N.am    1  UNL1       -0.2418
      9 C          63.8180   91.0692   13.3969 C.2     1  UNL1        0.4055
     10 O          62.8610   89.9142   13.4154 O.2     1  UNL1       -0.2262
     11 C          64.9966   92.9942   12.1106 C.3     1  UNL1        0.1243
     12 C          66.0685   93.0635   11.0636 C.ar    1  UNL1        0.0084
     13 C          66.9694   91.8864   10.8336 C.ar    1  UNL1       -0.0018
     14 C          68.0413   91.9556    9.7866 C.ar    1  UNL1       -0.0002
     15 C          68.2124   93.2019    8.9697 C.ar    1  UNL1        0.0008
     16 C          67.3116   94.3790    9.1996 C.ar    1  UNL1        0.0111
     17 C          66.2396   94.3098   10.2466 C.ar    1  UNL1        0.0553
     18 CL         65.3388   95.4869   10.4766 Cl      1  UNL1       -0.0825
     19 O          64.5533   91.4540   14.6464 O.3     1  UNL1       -0.4289
     20 C          65.9143   90.8860   14.9208 C.3     1  UNL1        0.2447
     21 C          67.1013   91.7976   15.0205 C.ar    1  UNL1        0.0714
     22 C          68.2598   91.8440   14.0687 C.ar    1  UNL1        0.1053
     23 N          69.2127   92.8980   14.5495 N.ar    1  UNL1       -0.2350
     24 C          68.6431   93.5031   15.7983 C.ar    1  UNL1        0.1343
     25 S          67.3382   92.8230   16.0893 S.2     1  UNL1       -0.0652
     26 C          61.0950   89.4388   10.1597 C.3     1  UNL1        0.0459
     27 C          60.2296   89.0148    9.0103 C.ar    1  UNL1       -0.0205
     28 C          60.0931   89.9007    7.8075 C.ar    1  UNL1       -0.0042
     29 C          59.2276   89.4766    6.6580 C.ar    1  UNL1       -0.0003
     30 C          58.4987   88.1667    6.7113 C.ar    1  UNL1       -0.0000
     31 C          58.6353   87.2809    7.9141 C.ar    1  UNL1       -0.0003
     32 C          59.5007   87.7049    9.0635 C.ar    1  UNL1       -0.0042
     33 C          62.6527   85.1958   11.0383 C.3     1  UNL1        0.1511
     34 N          62.5044   82.0252   13.4204 N.am    1  UNL1       -0.2567
     35 C          62.7886   80.5533   13.3681 C.3     1  UNL1        0.1168
     36 C          62.7207   82.8746   12.2032 C.2     1  UNL1        0.3046
     37 O          63.2212   82.2521   10.9336 O.2     1  UNL1       -0.2526
     38 N          62.4364   84.3464   12.2555 N.am    1  UNL1       -0.2824
     39 H          62.1079   84.7550   13.0888 H       1  UNL1        0.1514
     40 C          62.0038   82.6476   14.6900 C.3     1  UNL1        0.1413
     41 C          63.1378   85.8991   16.4810 C.ar    1  UNL1        0.0875
     42 N          62.0799   84.8917   16.1405 N.ar    1  UNL1       -0.2453
     43 C          62.7017   83.8448   15.2644 C.ar    1  UNL1        0.0858
     44 C          64.1438   84.2053   15.0634 C.ar    1  UNL1        0.0530
     45 S          64.4133   85.4749   15.8153 S.2     1  UNL1       -0.0705
     46 C          62.6093   86.9676   18.7894 C.3     1  UNL1        0.0069
     47 C          62.9526   87.1170   17.3369 C.3     1  UNL1        0.0465
     48 C          63.1108   88.4841   16.7403 C.3     1  UNL1        0.0069
     49 C          63.2761   84.6015    9.8101 C.3     1  UNL1        0.0463
     50 C          63.3360   85.3967    8.5397 C.3     1  UNL1        0.0745
     51 N          62.5223   84.9754    7.3520 N.3     1  UNL1       -0.2684
     52 C          63.2064   84.5583    6.0840 C.3     1  UNL1        0.1046
     53 C          62.3928   84.1370    4.8964 C.3     1  UNL1        0.1595
     54 O          60.8949   84.1327    4.9769 O.3     1  UNL1       -0.3508
     55 C          60.2108   84.5498    6.2449 C.3     1  UNL1        0.1595
     56 C          61.0245   84.9711    7.4325 C.3     1  UNL1        0.1046
@<TRIPOS>BOND
     1    46    47    1
     2    47    48    1
     3    47    41    1
     4    41    42   ar
     5    42    43   ar
     6    43    40    1
     7    40    34    1
     8    34    35    1
     9    34    36   am
    10    36    37    2
    11    36    38   am
    12    38    33    1
    13    33    49    1
    14    49    50    1
    15    50    51    1
    16    51    52    1
    17    52    53    1
    18    53    54    1
    19    54    55    1
    20    55    56    1
    21    33     1    1
    22     1     2    2
    23     1     3   am
    24     3     5    1
    25     5     6    1
    26     6     7    1
    27     7     8    1
    28     8    11    1
    29    11    12    1
    30    12    13   ar
    31    13    14   ar
    32    14    15   ar
    33    15    16   ar
    34    16    17   ar
    35    17    18    1
    36     8     9   am
    37     9    10    2
    38     9    19    1
    39    19    20    1
    40    20    21    1
    41    21    22   ar
    42    22    23   ar
    43    23    24   ar
    44    24    25   ar
    45     5    26    1
    46    26    27    1
    47    27    28   ar
    48    28    29   ar
    49    29    30   ar
    50    30    31   ar
    51    31    32   ar
    52    43    44   ar
    53    44    45   ar
    54    45    41   ar
    55    56    51    1
    56    17    12   ar
    57    25    21   ar
    58    32    27   ar
    59    38    39    1
    60     3     4    1
@<TRIPOS>MOLECULE
*****
 56 60 0 0 0
SMALL
GASTEIGER

@<TRIPOS>ATOM
      1 C          62.1107   87.5101   11.5625 C.2     1  UNL1        0.2404
      2 O          60.6563   87.5765   11.9235 O.2     1  UNL1       -0.2733
      3 N          62.7670   88.6714   10.8767 N.am    1  UNL1       -0.3042
      4 H          63.7216   88.6278   10.6398 H       1  UNL1        0.1494
      5 C          61.9689   89.8993   10.5518 C.3     1  UNL1        0.0777
      6 C          62.6485   91.2336   10.4625 C.3     1  UNL1        0.0415
      7 C          64.1190   91.3460   10.7356 C.3     1  UNL1        0.0988
      8 N          64.5989   91.9466   12.0237 N.am    1  UNL1       -0.2418
      9 C          64.0873   91.4217   13.3324 C.2     1  UNL1        0.4055
     10 O          63.0958   90.2962   13.3531 O.2     1  UNL1       -0.2262
     11 C          65.5903   93.0720   12.0030 C.3     1  UNL1        0.1243
     12 C          66.5061   93.2433   10.8275 C.ar    1  UNL1        0.0084
     13 C          67.4976   92.1706   10.4866 C.ar    1  UNL1       -0.0018
     14 C          68.4134   92.3419    9.3110 C.ar    1  UNL1       -0.0002
     15 C          68.3378   93.5859    8.4764 C.ar    1  UNL1        0.0008
     16 C          67.3463   94.6587    8.8173 C.ar    1  UNL1        0.0111
     17 C          66.4305   94.4874    9.9928 C.ar    1  UNL1        0.0553
     18 CL         65.4390   95.5601   10.3337 Cl      1  UNL1       -0.0825
     19 O          64.5671   92.0222   14.6204 O.3     1  UNL1       -0.4289
     20 C          65.7485   91.4297   15.3300 C.3     1  UNL1        0.2447
     21 C          67.0975   92.0742   15.2077 C.ar    1  UNL1        0.0714
     22 C          68.0969   91.8274   14.1166 C.ar    1  UNL1        0.1053
     23 N          69.3010   92.6793   14.3896 N.ar    1  UNL1       -0.2350
     24 C          69.0458   93.4526   15.6494 C.ar    1  UNL1        0.1343
     25 S          67.6839   93.0786   16.1549 S.2     1  UNL1       -0.0652
     26 C          60.4914   89.7929   10.3161 C.3     1  UNL1        0.0459
     27 C          59.9759   89.1180    9.0797 C.ar    1  UNL1       -0.0205
     28 C          59.9163   89.8709    7.7837 C.ar    1  UNL1       -0.0042
     29 C          59.4007   89.1959    6.5473 C.ar    1  UNL1       -0.0003
     30 C          58.9447   87.7682    6.6069 C.ar    1  UNL1       -0.0000
     31 C          59.0043   87.0153    7.9029 C.ar    1  UNL1       -0.0003
     32 C          59.5198   87.6902    9.1393 C.ar    1  UNL1       -0.0042
     33 C          62.9087   86.2823   11.8874 C.3     1  UNL1        0.1511
     34 N          62.9701   84.3893    8.3999 N.am    1  UNL1       -0.2567
     35 C          62.7502   84.6841    6.9458 C.3     1  UNL1        0.1168
     36 C          62.8295   85.4832    9.4166 C.2     1  UNL1        0.3046
     37 O          62.4690   86.8719    8.9791 O.2     1  UNL1       -0.2526
     38 N          63.0493   85.1884   10.8708 N.am    1  UNL1       -0.2824
     39 H          63.2859   84.2769   11.1580 H       1  UNL1        0.1514
     40 C          63.3306   83.0006    8.8375 C.3     1  UNL1        0.1413
     41 C          62.9462   82.1721   12.6099 C.ar    1  UNL1        0.0875
     42 N          62.3493   82.4491   11.2620 N.ar    1  UNL1       -0.2453
     43 C          63.4732   82.6875   10.2975 C.ar    1  UNL1        0.0858
     44 C          64.7646   82.5578   11.0494 C.ar    1  UNL1        0.0530
     45 S          64.4390   82.2392   12.4786 S.2     1  UNL1       -0.0705
     46 C          61.3607   80.6299   13.9729 C.3     1  UNL1        0.0069
     47 C          62.1842   81.8793   13.8683 C.3     1  UNL1        0.0465
     48 C          62.2455   82.8359   15.0221 C.3     1  UNL1        0.0069
     49 C          63.5662   86.1484   13.2290 C.3     1  UNL1        0.0463
     50 C          63.9170   87.3748   14.0181 C.3     1  UNL1        0.0745
     51 N          63.5686   87.4544   15.4750 N.3     1  UNL1       -0.2684
     52 C          63.3818   86.1970   16.2712 C.3     1  UNL1        0.1046
     53 C          63.0334   86.2766   17.7280 C.3     1  UNL1        0.1595
     54 O          62.8719   87.6137   18.3886 O.3     1  UNL1       -0.3508
     55 C          63.0588   88.8710   17.5924 C.3     1  UNL1        0.1595
     56 C          63.4071   88.7914   16.1356 C.3     1  UNL1        0.1046
@<TRIPOS>BOND
     1    46    47    1
     2    47    48    1
     3    47    41    1
     4    41    42   ar
     5    42    43   ar
     6    43    40    1
     7    40    34    1
     8    34    35    1
     9    34    36   am
    10    36    37    2
    11    36    38   am
    12    38    33    1
    13    33    49    1
    14    49    50    1
    15    50    51    1
    16    51    52    1
    17    52    53    1
    18    53    54    1
    19    54    55    1
    20    55    56    1
    21    33     1    1
    22     1     2    2
    23     1     3   am
    24     3     5    1
    25     5     6    1
    26     6     7    1
    27     7     8    1
    28     8    11    1
    29    11    12    1
    30    12    13   ar
    31    13    14   ar
    32    14    15   ar
    33    15    16   ar
    34    16    17   ar
    35    17    18    1
    36     8     9   am
    37     9    10    2
    38     9    19    1
    39    19    20    1
    40    20    21    1
    41    21    22   ar
    42    22    23   ar
    43    23    24   ar
    44    24    25   ar
    45     5    26    1
    46    26    27    1
    47    27    28   ar
    48    28    29   ar
    49    29    30   ar
    50    30    31   ar
    51    31    32   ar
    52    43    44   ar
    53    44    45   ar
    54    45    41   ar
    55    56    51    1
    56    17    12   ar
    57    25    21   ar
    58    32    27   ar
    59    38    39    1
    60     3     4    1
@<TRIPOS>MOLECULE
*****
 56 60 0 0 0
SMALL
GASTEIGER

@<TRIPOS>ATOM
      1 C          62.2528   86.5330   10.7031 C.2     1  UNL1        0.2404
      2 O          62.3442   87.2635    9.3961 O.2     1  UNL1       -0.2733
      3 N          61.6616   87.2128   11.9024 N.am    1  UNL1       -0.3042
      4 H          61.6016   86.7334   12.7602 H       1  UNL1        0.1494
      5 C          61.1618   88.6230   11.7948 C.3     1  UNL1        0.0777
      6 C          61.9975   89.7563   12.3118 C.3     1  UNL1        0.0415
      7 C          63.4836   89.5961   12.4369 C.3     1  UNL1        0.0988
      8 N          64.3184   90.7267   12.9613 N.am    1  UNL1       -0.2418
      9 C          64.6017   91.9158   12.0920 C.2     1  UNL1        0.4055
     10 O          64.0503   91.9743   10.6982 O.2     1  UNL1       -0.2262
     11 C          64.8698   90.6682   14.3550 C.3     1  UNL1        0.1243
     12 C          66.1091   91.4377   14.7042 C.ar    1  UNL1        0.0084
     13 C          67.3489   91.2791   13.8749 C.ar    1  UNL1       -0.0018
     14 C          68.5883   92.0485   14.2241 C.ar    1  UNL1       -0.0002
     15 C          68.5879   92.9766   15.4025 C.ar    1  UNL1        0.0008
     16 C          67.3480   93.1352   16.2318 C.ar    1  UNL1        0.0111
     17 C          66.1087   92.3657   15.8827 C.ar    1  UNL1        0.0553
     18 CL         64.8689   92.5243   16.7119 Cl      1  UNL1       -0.0825
     19 O          65.4365   93.0464   12.6164 O.3     1  UNL1       -0.4289
     20 C          65.9864   94.0736   11.6716 C.3     1  UNL1        0.2447
     21 C          66.8641   93.6501   10.5313 C.ar    1  UNL1        0.0714
     22 C          67.0483   94.3890    9.2389 C.ar    1  UNL1        0.1053
     23 N          68.0098   93.6089    8.3920 N.ar    1  UNL1       -0.2350
     24 C          68.4198   92.3880    9.1610 C.ar    1  UNL1        0.1343
     25 S          67.7117   92.4135   10.4831 S.2     1  UNL1       -0.0652
     26 C          59.8265   88.8999   11.1702 C.3     1  UNL1        0.0459
     27 C          59.6318   88.6992    9.6966 C.ar    1  UNL1       -0.0205
     28 C          59.0297   87.4236    9.1864 C.ar    1  UNL1       -0.0042
     29 C          58.8349   87.2230    7.7127 C.ar    1  UNL1       -0.0003
     30 C          59.2423   88.2979    6.7491 C.ar    1  UNL1       -0.0000
     31 C          59.8444   89.5736    7.2592 C.ar    1  UNL1       -0.0003
     32 C          60.0391   89.7742    8.7329 C.ar    1  UNL1       -0.0042
     33 C          62.7525   85.1228   10.8107 C.3     1  UNL1        0.1511
     34 N          62.5521   82.0681   13.3363 N.am    1  UNL1       -0.2567
     35 C          62.8711   80.6029   13.3711 C.3     1  UNL1        0.1168
     36 C          62.8118   82.8629   12.0909 C.2     1  UNL1        0.3046
     37 O          63.3905   82.1924   10.8804 O.2     1  UNL1       -0.2526
     38 N          62.4928   84.3281   12.0561 N.am    1  UNL1       -0.2824
     39 H          62.1130   84.7682   12.8506 H       1  UNL1        0.1514
     40 C          61.9735   82.7387   14.5469 C.3     1  UNL1        0.1413
     41 C          63.1337   85.9156   16.4513 C.ar    1  UNL1        0.0875
     42 N          62.0628   84.9412   16.0589 N.ar    1  UNL1       -0.2453
     43 C          62.6829   83.9044   15.1696 C.ar    1  UNL1        0.0858
     44 C          64.1369   84.2380   15.0126 C.ar    1  UNL1        0.0530
     45 S          64.4155   85.4810   15.8047 S.2     1  UNL1       -0.0705
     46 C          63.1090   88.4941   16.7681 C.3     1  UNL1        0.0069
     47 C          62.9542   87.1141   17.3352 C.3     1  UNL1        0.0465
     48 C          62.6198   86.9326   18.7862 C.3     1  UNL1        0.0069
     49 C          63.5119   84.5073    9.6729 C.3     1  UNL1        0.0463
     50 C          63.6114   85.2275    8.3609 C.3     1  UNL1        0.0745
     51 N          62.6905   84.8638    7.2340 N.3     1  UNL1       -0.2684
     52 C          61.2057   84.8705    7.4468 C.3     1  UNL1        0.1046
     53 C          60.2849   84.5069    6.3200 C.3     1  UNL1        0.1595
     54 O          60.8489   84.1364    4.9803 O.3     1  UNL1       -0.3508
     55 C          62.3337   84.1297    4.7675 C.3     1  UNL1        0.1595
     56 C          63.2545   84.4934    5.8944 C.3     1  UNL1        0.1046
@<TRIPOS>BOND
     1    46    47    1
     2    47    48    1
     3    47    41    1
     4    41    42   ar
     5    42    43   ar
     6    43    40    1
     7    40    34    1
     8    34    35    1
     9    34    36   am
    10    36    37    2
    11    36    38   am
    12    38    33    1
    13    33    49    1
    14    49    50    1
    15    50    51    1
    16    51    52    1
    17    52    53    1
    18    53    54    1
    19    54    55    1
    20    55    56    1
    21    33     1    1
    22     1     2    2
    23     1     3   am
    24     3     5    1
    25     5     6    1
    26     6     7    1
    27     7     8    1
    28     8    11    1
    29    11    12    1
    30    12    13   ar
    31    13    14   ar
    32    14    15   ar
    33    15    16   ar
    34    16    17   ar
    35    17    18    1
    36     8     9   am
    37     9    10    2
    38     9    19    1
    39    19    20    1
    40    20    21    1
    41    21    22   ar
    42    22    23   ar
    43    23    24   ar
    44    24    25   ar
    45     5    26    1
    46    26    27    1
    47    27    28   ar
    48    28    29   ar
    49    29    30   ar
    50    30    31   ar
    51    31    32   ar
    52    43    44   ar
    53    44    45   ar
    54    45    41   ar
    55    56    51    1
    56    17    12   ar
    57    25    21   ar
    58    32    27   ar
    59    38    39    1
    60     3     4    1
@<TRIPOS>MOLECULE
*****
 56 60 0 0 0
SMALL
GASTEIGER

@<TRIPOS>ATOM
      1 C          61.7935   87.4944   11.2990 C.2     1  UNL1        0.2404
      2 O          60.4773   87.8189   11.9410 O.2     1  UNL1       -0.2733
      3 N          62.5613   88.5638   10.5802 N.am    1  UNL1       -0.3042
      4 H          63.4252   88.3508   10.1588 H       1  UNL1        0.1494
      5 C          62.0128   89.9579   10.5033 C.3     1  UNL1        0.0777
      6 C          62.9099   91.1321   10.7613 C.3     1  UNL1        0.0415
      7 C          64.2384   90.9288   11.4274 C.3     1  UNL1        0.0988
      8 N          64.6430   91.8039   12.5765 N.am    1  UNL1       -0.2418
      9 C          64.2386   91.4407   13.9746 C.2     1  UNL1        0.4055
     10 O          63.4297   90.2023   14.2235 O.2     1  UNL1       -0.2262
     11 C          65.4519   93.0423   12.3276 C.3     1  UNL1        0.1243
     12 C          66.4005   93.0978   11.1670 C.ar    1  UNL1        0.0084
     13 C          67.3857   91.9878   10.9498 C.ar    1  UNL1       -0.0018
     14 C          68.3343   92.0434    9.7892 C.ar    1  UNL1       -0.0002
     15 C          68.2977   93.2089    8.8457 C.ar    1  UNL1        0.0008
     16 C          67.3125   94.3190    9.0629 C.ar    1  UNL1        0.0111
     17 C          66.3639   94.2635   10.2235 C.ar    1  UNL1        0.0553
     18 CL         65.3787   95.3735   10.4407 Cl      1  UNL1       -0.0825
     19 O          64.6432   92.3159   15.1237 O.3     1  UNL1       -0.4289
     20 C          65.8311   91.9497   15.9633 C.3     1  UNL1        0.2447
     21 C          67.2073   92.3694   15.5391 C.ar    1  UNL1        0.0714
     22 C          68.0068   91.7687   14.4209 C.ar    1  UNL1        0.1053
     23 N          69.3193   92.4915   14.3493 N.ar    1  UNL1       -0.2350
     24 C          69.3309   93.5388   15.4231 C.ar    1  UNL1        0.1343
     25 S          68.0257   93.4633   16.1584 S.2     1  UNL1       -0.0652
     26 C          60.5673   90.1778   10.1685 C.3     1  UNL1        0.0459
     27 C          59.9591   89.4894    8.9828 C.ar    1  UNL1       -0.0205
     28 C          59.3562   88.1244    9.1356 C.ar    1  UNL1       -0.0042
     29 C          58.7479   87.4361    7.9497 C.ar    1  UNL1       -0.0003
     30 C          58.7425   88.1127    6.6111 C.ar    1  UNL1       -0.0000
     31 C          59.3454   89.4777    6.4582 C.ar    1  UNL1       -0.0003
     32 C          59.9536   90.1661    7.6440 C.ar    1  UNL1       -0.0042
     33 C          62.3420   86.1004   11.3757 C.3     1  UNL1        0.1511
     34 N          63.1502   85.1051   15.1316 N.am    1  UNL1       -0.2567
     35 C          63.9858   85.5910   16.2786 C.3     1  UNL1        0.1168
     36 C          63.1639   85.8457   13.8272 C.2     1  UNL1        0.3046
     37 O          64.0130   87.0721   13.6699 O.2     1  UNL1       -0.2526
     38 N          62.3283   85.3598   12.6801 N.am    1  UNL1       -0.2824
     39 H          61.7710   84.5549   12.7834 H       1  UNL1        0.1514
     40 C          62.3011   83.8787   15.2889 C.3     1  UNL1        0.1413
     41 C          62.8488   81.5442   12.2367 C.ar    1  UNL1        0.0875
     42 N          62.9887   82.8788   12.9071 N.ar    1  UNL1       -0.2453
     43 C          62.3799   82.7767   14.2743 C.ar    1  UNL1        0.0858
     44 C          61.8638   81.3791   14.4487 C.ar    1  UNL1        0.0530
     45 S          62.1536   80.6174   13.1894 S.2     1  UNL1       -0.0705
     46 C          64.2160   82.1424   10.1100 C.3     1  UNL1        0.0069
     47 C          63.3212   81.1975   10.8559 C.3     1  UNL1        0.0465
     48 C          62.8987   79.9058   10.2210 C.3     1  UNL1        0.0069
     49 C          62.9041   85.4469   10.1481 C.3     1  UNL1        0.0463
     50 C          62.8016   86.1342    8.8189 C.3     1  UNL1        0.0745
     51 N          62.2496   85.3979    7.6343 N.3     1  UNL1       -0.2684
     52 C          63.1798   84.8346    6.6012 C.3     1  UNL1        0.1046
     53 C          62.6277   84.0983    5.4167 C.3     1  UNL1        0.1595
     54 O          61.1455   83.9252    5.2654 O.3     1  UNL1       -0.3508
     55 C          60.2152   84.4884    6.2985 C.3     1  UNL1        0.1595
     56 C          60.7673   85.2247    7.4830 C.3     1  UNL1        0.1046
@<TRIPOS>BOND
     1    46    47    1
     2    47    48    1
     3    47    41    1
     4    41    42   ar
     5    42    43   ar
     6    43    40    1
     7    40    34    1
     8    34    35    1
     9    34    36   am
    10    36    37    2
    11    36    38   am
    12    38    33    1
    13    33    49    1
    14    49    50    1
    15    50    51    1
    16    51    52    1
    17    52    53    1
    18    53    54    1
    19    54    55    1
    20    55    56    1
    21    33     1    1
    22     1     2    2
    23     1     3   am
    24     3     5    1
    25     5     6    1
    26     6     7    1
    27     7     8    1
    28     8    11    1
    29    11    12    1
    30    12    13   ar
    31    13    14   ar
    32    14    15   ar
    33    15    16   ar
    34    16    17   ar
    35    17    18    1
    36     8     9   am
    37     9    10    2
    38     9    19    1
    39    19    20    1
    40    20    21    1
    41    21    22   ar
    42    22    23   ar
    43    23    24   ar
    44    24    25   ar
    45     5    26    1
    46    26    27    1
    47    27    28   ar
    48    28    29   ar
    49    29    30   ar
    50    30    31   ar
    51    31    32   ar
    52    43    44   ar
    53    44    45   ar
    54    45    41   ar
    55    56    51    1
    56    17    12   ar
    57    25    21   ar
    58    32    27   ar
    59    38    39    1
    60     3     4    1
@<TRIPOS>MOLECULE
*****
 56 60 0 0 0
SMALL
GASTEIGER

@<TRIPOS>ATOM
      1 C          62.3020   86.8928   12.1096 C.2     1  UNL1        0.2404
      2 O          60.8766   86.4896   11.8737 O.2     1  UNL1       -0.2733
      3 N          62.7657   88.2672   11.7275 N.am    1  UNL1       -0.3042
      4 H          63.7012   88.5319   11.8823 H       1  UNL1        0.1494
      5 C          61.8040   89.2384   11.1095 C.3     1  UNL1        0.0777
      6 C          62.2562   90.6272   10.7679 C.3     1  UNL1        0.0415
      7 C          63.7202   90.9520   10.7330 C.3     1  UNL1        0.0988
      8 N          64.3170   91.8388   11.7852 N.am    1  UNL1       -0.2418
      9 C          64.3390   91.3932   13.2173 C.2     1  UNL1        0.4055
     10 O          63.7641   90.0608   13.5972 O.2     1  UNL1       -0.2262
     11 C          64.8919   93.1711   11.4054 C.3     1  UNL1        0.1243
     12 C          66.1764   93.2414   10.6340 C.ar    1  UNL1        0.0084
     13 C          67.0808   92.0463   10.5727 C.ar    1  UNL1       -0.0018
     14 C          68.3652   92.1166    9.8012 C.ar    1  UNL1       -0.0002
     15 C          68.7453   93.3819    9.0910 C.ar    1  UNL1        0.0008
     16 C          67.8409   94.5771    9.1523 C.ar    1  UNL1        0.0111
     17 C          66.5564   94.5068    9.9238 C.ar    1  UNL1        0.0553
     18 CL         65.6520   95.7019    9.9850 Cl      1  UNL1       -0.0825
     19 O          64.9358   92.2801   14.2696 O.3     1  UNL1       -0.4289
     20 C          65.9832   91.7414   15.1986 C.3     1  UNL1        0.2447
     21 C          67.3833   92.2769   15.1416 C.ar    1  UNL1        0.0714
     22 C          68.4202   91.9263   14.1159 C.ar    1  UNL1        0.1053
     23 N          69.6700   92.6897   14.4407 N.ar    1  UNL1       -0.2350
     24 C          69.4054   93.5120   15.6670 C.ar    1  UNL1        0.1343
     25 S          67.9922   93.2568   16.1002 S.2     1  UNL1       -0.0652
     26 C          60.3900   88.8209   10.8332 C.3     1  UNL1        0.0459
     27 C          59.9675   88.4833    9.4341 C.ar    1  UNL1       -0.0205
     28 C          59.9958   89.5373    8.3672 C.ar    1  UNL1       -0.0042
     29 C          59.5732   89.1997    6.9681 C.ar    1  UNL1       -0.0003
     30 C          59.1225   87.8082    6.6359 C.ar    1  UNL1       -0.0000
     31 C          59.0943   86.7542    7.7028 C.ar    1  UNL1       -0.0003
     32 C          59.5168   87.0917    9.1019 C.ar    1  UNL1       -0.0042
     33 C          63.2638   85.9217   12.7276 C.3     1  UNL1        0.1511
     34 N          62.1352   82.1821   13.4287 N.am    1  UNL1       -0.2567
     35 C          61.4187   81.3929   14.4841 C.3     1  UNL1        0.1168
     36 C          62.3413   83.6573   13.6058 C.2     1  UNL1        0.3046
     37 O          61.8309   84.3433   14.8382 O.2     1  UNL1       -0.2526
     38 N          63.0577   84.4465   12.5505 N.am    1  UNL1       -0.2824
     39 H          63.3927   83.9963   11.7416 H       1  UNL1        0.1514
     40 C          62.6456   81.4961   12.1963 C.3     1  UNL1        0.1413
     41 C          63.2397   83.9046    9.2110 C.ar    1  UNL1        0.0875
     42 N          62.3581   83.3463   10.2886 N.ar    1  UNL1       -0.2453
     43 C          63.1411   82.3083   11.0366 C.ar    1  UNL1        0.0858
     44 C          64.5066   82.2251   10.4214 C.ar    1  UNL1        0.0530
     45 S          64.5675   83.2116    9.2931 S.2     1  UNL1       -0.0705
     46 C          62.4828   84.5920    6.8226 C.3     1  UNL1        0.0069
     47 C          62.8601   84.9689    8.2246 C.3     1  UNL1        0.0465
     48 C          62.8576   86.4102    8.6401 C.3     1  UNL1        0.0069
     49 C          64.4316   86.4258   13.5227 C.3     1  UNL1        0.0463
     50 C          64.6378   85.9564   14.9323 C.3     1  UNL1        0.0745
     51 N          63.9210   86.6356   16.0614 N.3     1  UNL1       -0.2684
     52 C          63.7580   88.1267   16.0573 C.3     1  UNL1        0.1046
     53 C          63.0412   88.8059   17.1864 C.3     1  UNL1        0.1595
     54 O          62.4875   87.9940   18.3196 O.3     1  UNL1       -0.3508
     55 C          62.6505   86.5029   18.3237 C.3     1  UNL1        0.1595
     56 C          63.3673   85.8237   17.1947 C.3     1  UNL1        0.1046
@<TRIPOS>BOND
     1    46    47    1
     2    47    48    1
     3    47    41    1
     4    41    42   ar
     5    42    43   ar
     6    43    40    1
     7    40    34    1
     8    34    35    1
     9    34    36   am
    10    36    37    2
    11    36    38   am
    12    38    33    1
    13    33    49    1
    14    49    50    1
    15    50    51    1
    16    51    52    1
    17    52    53    1
    18    53    54    1
    19    54    55    1
    20    55    56    1
    21    33     1    1
    22     1     2    2
    23     1     3   am
    24     3     5    1
    25     5     6    1
    26     6     7    1
    27     7     8    1
    28     8    11    1
    29    11    12    1
    30    12    13   ar
    31    13    14   ar
    32    14    15   ar
    33    15    16   ar
    34    16    17   ar
    35    17    18    1
    36     8     9   am
    37     9    10    2
    38     9    19    1
    39    19    20    1
    40    20    21    1
    41    21    22   ar
    42    22    23   ar
    43    23    24   ar
    44    24    25   ar
    45     5    26    1
    46    26    27    1
    47    27    28   ar
    48    28    29   ar
    49    29    30   ar
    50    30    31   ar
    51    31    32   ar
    52    43    44   ar
    53    44    45   ar
    54    45    41   ar
    55    56    51    1
    56    17    12   ar
    57    25    21   ar
    58    32    27   ar
    59    38    39    1
    60     3     4    1
@<TRIPOS>MOLECULE
*****
 56 60 0 0 0
SMALL
GASTEIGER

@<TRIPOS>ATOM
      1 C          60.5378   89.0476    8.9136 C.2     1  UNL1        0.2404
      2 O          61.8563   89.7621    8.8794 O.2     1  UNL1       -0.2733
      3 N          60.0546   88.4256   10.1902 N.am    1  UNL1       -0.3042
      4 H          59.1893   87.9567   10.2126 H       1  UNL1        0.1494
      5 C          60.8900   88.5182   11.4327 C.3     1  UNL1        0.0777
      6 C          61.5540   87.2909   11.9831 C.3     1  UNL1        0.0415
      7 C          63.0498   87.2237   12.0726 C.3     1  UNL1        0.0988
      8 N          63.7056   86.1284   12.8601 N.am    1  UNL1       -0.2418
      9 C          63.5110   84.6963   12.4588 C.2     1  UNL1        0.4055
     10 O          62.6607   84.3594   11.2698 O.2     1  UNL1       -0.2262
     11 C          64.5559   86.4652   14.0490 C.3     1  UNL1        0.1243
     12 C          63.9109   86.8456   15.3487 C.ar    1  UNL1        0.0084
     13 C          63.7047   88.2920   15.6886 C.ar    1  UNL1       -0.0018
     14 C          63.0598   88.6724   16.9883 C.ar    1  UNL1       -0.0002
     15 C          62.6211   87.6065   17.9482 C.ar    1  UNL1        0.0008
     16 C          62.8274   86.1601   17.6084 C.ar    1  UNL1        0.0111
     17 C          63.4723   85.7797   16.3087 C.ar    1  UNL1        0.0553
     18 CL         63.6786   84.3333   15.9688 Cl      1  UNL1       -0.0825
     19 O          64.1668   83.6009   13.2463 O.3     1  UNL1       -0.4289
     20 C          64.0417   82.1754   12.7963 C.3     1  UNL1        0.2447
     21 C          62.8598   81.3556   13.2219 C.ar    1  UNL1        0.0714
     22 C          62.5976   79.9266   12.8487 C.ar    1  UNL1        0.1053
     23 N          61.3084   79.5087   13.4916 N.ar    1  UNL1       -0.2350
     24 C          60.7738   80.6794   14.2621 C.ar    1  UNL1        0.1343
     25 S          61.7326   81.8208   14.0954 S.2     1  UNL1       -0.0652
     26 C          61.0612   89.8379   12.1247 C.3     1  UNL1        0.0459
     27 C          62.4061   90.5015   12.1519 C.ar    1  UNL1       -0.0205
     28 C          62.9432   91.1590   10.9153 C.ar    1  UNL1       -0.0042
     29 C          64.2882   91.8226   10.9426 C.ar    1  UNL1       -0.0003
     30 C          65.0960   91.8287   12.2064 C.ar    1  UNL1       -0.0000
     31 C          64.5589   91.1713   13.4431 C.ar    1  UNL1       -0.0003
     32 C          63.2140   90.5077   13.4158 C.ar    1  UNL1       -0.0042
     33 C          59.7025   88.9550    7.6712 C.3     1  UNL1        0.1511
     34 N          58.4112   91.5967    5.0059 N.am    1  UNL1       -0.2567
     35 C          57.1381   91.9738    4.3081 C.3     1  UNL1        0.1168
     36 C          58.4203   90.4644    5.9896 C.2     1  UNL1        0.3046
     37 O          57.1563   89.7092    6.2756 O.2     1  UNL1       -0.2526
     38 N          59.6934   90.0873    6.6874 N.am    1  UNL1       -0.2824
     39 H          60.5231   90.5830    6.4997 H       1  UNL1        0.1514
     40 C          59.6753   92.3520    4.7199 C.3     1  UNL1        0.1413
     41 C          60.0447   93.2039    0.9512 C.ar    1  UNL1        0.0875
     42 N          59.2140   93.1020    2.1961 N.ar    1  UNL1       -0.2453
     43 C          60.0955   92.6013    3.3017 C.ar    1  UNL1        0.0858
     44 C          61.4708   92.3937    2.7402 C.ar    1  UNL1        0.0530
     45 S          61.4395   92.7661    1.2875 S.2     1  UNL1       -0.0705
     46 C          60.2555   93.1894   -1.6382 C.3     1  UNL1        0.0069
     47 C          59.5649   93.6629   -0.3938 C.3     1  UNL1        0.0465
     48 C          58.3943   94.5955   -0.4943 C.3     1  UNL1        0.0069
     49 C          58.8762   87.7300    7.4124 C.3     1  UNL1        0.0463
     50 C          59.2720   86.4165    8.0190 C.3     1  UNL1        0.0745
     51 N          60.5612   85.7630    7.6176 N.3     1  UNL1       -0.2684
     52 C          60.6308   84.9533    6.3569 C.3     1  UNL1        0.1046
     53 C          61.9199   84.2999    5.9555 C.3     1  UNL1        0.1595
     54 O          63.1394   84.4562    6.8149 O.3     1  UNL1       -0.3508
     55 C          63.0698   85.2659    8.0756 C.3     1  UNL1        0.1595
     56 C          61.7806   85.9194    8.4769 C.3     1  UNL1        0.1046
@<TRIPOS>BOND
     1    46    47    1
     2    47    48    1
     3    47    41    1
     4    41    42   ar
     5    42    43   ar
     6    43    40    1
     7    40    34    1
     8    34    35    1
     9    34    36   am
    10    36    37    2
    11    36    38   am
    12    38    33    1
    13    33    49    1
    14    49    50    1
    15    50    51    1
    16    51    52    1
    17    52    53    1
    18    53    54    1
    19    54    55    1
    20    55    56    1
    21    33     1    1
    22     1     2    2
    23     1     3   am
    24     3     5    1
    25     5     6    1
    26     6     7    1
    27     7     8    1
    28     8    11    1
    29    11    12    1
    30    12    13   ar
    31    13    14   ar
    32    14    15   ar
    33    15    16   ar
    34    16    17   ar
    35    17    18    1
    36     8     9   am
    37     9    10    2
    38     9    19    1
    39    19    20    1
    40    20    21    1
    41    21    22   ar
    42    22    23   ar
    43    23    24   ar
    44    24    25   ar
    45     5    26    1
    46    26    27    1
    47    27    28   ar
    48    28    29   ar
    49    29    30   ar
    50    30    31   ar
    51    31    32   ar
    52    43    44   ar
    53    44    45   ar
    54    45    41   ar
    55    56    51    1
    56    17    12   ar
    57    25    21   ar
    58    32    27   ar
    59    38    39    1
    60     3     4    1
