@<TRIPOS>MOLECULE
*****
 28 30 0 0 0
SMALL
GASTEIGER

@<TRIPOS>ATOM
      1 C          63.2390   84.3120   12.4962 C.3     1  UNL1        0.0503
      2 C          64.1610   82.1199   10.6672 C.3     1  UNL1        0.0307
      3 C          63.2667   81.8013   11.8285 C.ar    1  UNL1       -0.0255
      4 C          62.8334   80.3866   12.0754 C.ar    1  UNL1       -0.0046
      5 C          61.9391   80.0679   13.2367 C.ar    1  UNL1       -0.0003
      6 C          61.4781   81.1639   14.1512 C.ar    1  UNL1       -0.0003
      7 C          61.9114   82.5785   13.9043 C.ar    1  UNL1       -0.0043
      8 C          62.8057   82.8972   12.7430 C.ar    1  UNL1       -0.0220
      9 C          62.5135   85.1536   11.4886 C.ar    1  UNL1       -0.0180
     10 C          62.7797   84.9667   10.0243 C.ar    1  UNL1       -0.0034
     11 C          62.0541   85.8084    9.0167 C.ar    1  UNL1        0.0064
     12 C          61.0623   86.8369    9.4735 C.ar    1  UNL1        0.0345
     13 BR         60.3368   87.6785    8.4659 Br      1  UNL1       -0.0490
     14 C          60.7961   87.0237   10.9378 C.ar    1  UNL1        0.0064
     15 C          61.5217   86.1820   11.9453 C.ar    1  UNL1       -0.0034
     16 C          64.3978   84.8850   13.2569 C.3     1  UNL1        0.0579
     17 C          64.2785   85.1318   14.7316 C.2     1  UNL1        0.0989
     18 N          64.4532   83.9984   15.6984 N.2     1  UNL1       -0.0908
     19 O          64.6090   83.2207   15.6177 O.2     1  UNL1       -0.4090
     20 H          64.6788   82.6757   16.3767 H       1  UNL1        0.3278
     21 C          63.9843   86.5123   15.2396 C.ar    1  UNL1        0.0342
     22 C          63.3324   86.6959   16.5779 C.ar    1  UNL1        0.0077
     23 C          63.0383   88.0762   17.0858 C.ar    1  UNL1        0.0608
     24 C          63.3961   89.2730   16.2554 C.ar    1  UNL1        0.2610
     25 O          63.1020   90.6535   16.7634 O.2     1  UNL1       -0.2670
     26 N          64.0481   89.0894   14.9171 N.ar    1  UNL1       -0.2921
     27 C          64.4060   90.2862   14.0866 C.3     1  UNL1        0.1336
     28 C          64.3422   87.7091   14.4092 C.ar    1  UNL1        0.0796
@<TRIPOS>BOND
     1     2     3    1
     2     3     4   ar
     3     4     5   ar
     4     5     6   ar
     5     6     7   ar
     6     7     8   ar
     7     8     1    1
     8     1    16    1
     9    16    17    1
    10    17    18    2
    11    18    19    1
    12    17    21    1
    13    21    22   ar
    14    22    23   ar
    15    23    24   ar
    16    24    25    2
    17    24    26   ar
    18    26    27    1
    19    26    28   ar
    20     1     9    1
    21     9    10   ar
    22    10    11   ar
    23    11    12   ar
    24    12    13    1
    25    12    14   ar
    26    14    15   ar
    27     8     3   ar
    28    28    21   ar
    29    15     9   ar
    30    19    20    1
@<TRIPOS>MOLECULE
*****
 28 30 0 0 0
SMALL
GASTEIGER

@<TRIPOS>ATOM
      1 C          62.2648   87.3870   10.7407 C.3     1  UNL1        0.0503
      2 C          63.2052   85.5925    8.5281 C.3     1  UNL1        0.0307
      3 C          61.7940   86.1009    8.5329 C.ar    1  UNL1       -0.0255
      4 C          60.8530   85.7120    7.4314 C.ar    1  UNL1       -0.0046
      5 C          59.4418   86.2204    7.4362 C.ar    1  UNL1       -0.0003
      6 C          58.9715   87.1176    8.5424 C.ar    1  UNL1       -0.0003
      7 C          59.9125   87.5064    9.6439 C.ar    1  UNL1       -0.0043
      8 C          61.3238   86.9981    9.6391 C.ar    1  UNL1       -0.0220
      9 C          62.6659   86.3779   11.7755 C.ar    1  UNL1       -0.0180
     10 C          63.5170   86.7941   12.9385 C.ar    1  UNL1       -0.0034
     11 C          63.9181   85.7851   13.9734 C.ar    1  UNL1        0.0064
     12 C          63.4680   84.3599   13.8453 C.ar    1  UNL1        0.0345
     13 BR         63.8691   83.3509   14.8802 Br      1  UNL1       -0.0490
     14 C          62.6170   83.9438   12.6824 C.ar    1  UNL1        0.0064
     15 C          62.2159   84.9528   11.6475 C.ar    1  UNL1       -0.0034
     16 C          62.8046   88.7848   10.8073 C.3     1  UNL1        0.0579
     17 C          62.5390   89.6347   12.0145 C.2     1  UNL1        0.0989
     18 N          61.1666   89.6714   12.6186 N.2     1  UNL1       -0.0908
     19 O          60.4742   89.3179   12.4421 O.2     1  UNL1       -0.4090
     20 H          59.7158   89.4853   12.9662 H       1  UNL1        0.3278
     21 C          63.6460   90.4478   12.6175 C.ar    1  UNL1        0.0342
     22 C          64.1847   90.0937   13.9718 C.ar    1  UNL1        0.0077
     23 C          65.2915   90.9068   14.5748 C.ar    1  UNL1        0.0608
     24 C          65.8597   92.0741   13.8234 C.ar    1  UNL1        0.2610
     25 O          66.9666   92.8873   14.4264 O.2     1  UNL1       -0.2670
     26 N          65.3210   92.4283   12.4690 N.ar    1  UNL1       -0.2921
     27 C          65.8891   93.5956   11.7176 C.3     1  UNL1        0.1336
     28 C          64.2141   91.6151   11.8661 C.ar    1  UNL1        0.0796
@<TRIPOS>BOND
     1     2     3    1
     2     3     4   ar
     3     4     5   ar
     4     5     6   ar
     5     6     7   ar
     6     7     8   ar
     7     8     1    1
     8     1    16    1
     9    16    17    1
    10    17    18    2
    11    18    19    1
    12    17    21    1
    13    21    22   ar
    14    22    23   ar
    15    23    24   ar
    16    24    25    2
    17    24    26   ar
    18    26    27    1
    19    26    28   ar
    20     1     9    1
    21     9    10   ar
    22    10    11   ar
    23    11    12   ar
    24    12    13    1
    25    12    14   ar
    26    14    15   ar
    27     8     3   ar
    28    28    21   ar
    29    15     9   ar
    30    19    20    1
@<TRIPOS>MOLECULE
*****
 28 30 0 0 0
SMALL
GASTEIGER

@<TRIPOS>ATOM
      1 C          64.3718   90.7123   14.2937 C.3     1  UNL1        0.0503
      2 C          64.6676   92.3858   16.7659 C.3     1  UNL1        0.0307
      3 C          65.8150   92.2521   15.8090 C.ar    1  UNL1       -0.0255
      4 C          67.1102   92.9552   16.0881 C.ar    1  UNL1       -0.0046
      5 C          68.2576   92.8215   15.1312 C.ar    1  UNL1       -0.0003
      6 C          68.1097   91.9848   13.8951 C.ar    1  UNL1       -0.0003
      7 C          66.8144   91.2817   13.6159 C.ar    1  UNL1       -0.0043
      8 C          65.6671   91.4154   14.5729 C.ar    1  UNL1       -0.0220
      9 C          64.0414   89.4365   15.0100 C.ar    1  UNL1       -0.0180
     10 C          63.2268   89.4725   16.2690 C.ar    1  UNL1       -0.0034
     11 C          62.8964   88.1967   16.9853 C.ar    1  UNL1        0.0064
     12 C          63.3806   86.8848   16.4426 C.ar    1  UNL1        0.0345
     13 BR         63.0502   85.6090   17.1589 Br      1  UNL1       -0.0490
     14 C          64.1952   86.8488   15.1836 C.ar    1  UNL1        0.0064
     15 C          64.5256   88.1246   14.4673 C.ar    1  UNL1       -0.0034
     16 C          63.4069   91.2850   13.2982 C.3     1  UNL1        0.0579
     17 C          63.5495   90.9574   11.8414 C.2     1  UNL1        0.0989
     18 N          64.4579   91.7771   10.9737 N.2     1  UNL1       -0.0908
     19 O          64.9308   92.4053   11.1049 O.2     1  UNL1       -0.4090
     20 H          65.4270   92.7734   10.4004 H       1  UNL1        0.3278
     21 C          62.7837   89.8099   11.2522 C.ar    1  UNL1        0.0342
     22 C          62.9935   88.4203   11.7764 C.ar    1  UNL1        0.0077
     23 C          62.2277   87.2729   11.1873 C.ar    1  UNL1        0.0608
     24 C          61.2521   87.5152   10.0740 C.ar    1  UNL1        0.2610
     25 O          60.4863   86.3678    9.4849 O.2     1  UNL1       -0.2670
     26 N          61.0423   88.9049    9.5498 N.ar    1  UNL1       -0.2921
     27 C          60.0667   89.1472    8.4365 C.3     1  UNL1        0.1336
     28 C          61.8081   90.0522   10.1389 C.ar    1  UNL1        0.0796
@<TRIPOS>BOND
     1     2     3    1
     2     3     4   ar
     3     4     5   ar
     4     5     6   ar
     5     6     7   ar
     6     7     8   ar
     7     8     1    1
     8     1    16    1
     9    16    17    1
    10    17    18    2
    11    18    19    1
    12    17    21    1
    13    21    22   ar
    14    22    23   ar
    15    23    24   ar
    16    24    25    2
    17    24    26   ar
    18    26    27    1
    19    26    28   ar
    20     1     9    1
    21     9    10   ar
    22    10    11   ar
    23    11    12   ar
    24    12    13    1
    25    12    14   ar
    26    14    15   ar
    27     8     3   ar
    28    28    21   ar
    29    15     9   ar
    30    19    20    1
@<TRIPOS>MOLECULE
*****
 28 30 0 0 0
SMALL
GASTEIGER

@<TRIPOS>ATOM
      1 C          62.2507   87.5323   10.5657 C.3     1  UNL1        0.0503
      2 C          63.1841   85.5960    8.4730 C.3     1  UNL1        0.0307
      3 C          61.7664   86.0858    8.4626 C.ar    1  UNL1       -0.0255
      4 C          60.8153   85.6074    7.4059 C.ar    1  UNL1       -0.0046
      5 C          59.3976   86.0971    7.3956 C.ar    1  UNL1       -0.0003
      6 C          58.9309   87.0653    8.4419 C.ar    1  UNL1       -0.0003
      7 C          59.8819   87.5437    9.4986 C.ar    1  UNL1       -0.0043
      8 C          61.2997   87.0539    9.5089 C.ar    1  UNL1       -0.0220
      9 C          62.6501   86.6173   11.6852 C.ar    1  UNL1       -0.0180
     10 C          62.1888   85.1899   11.6879 C.ar    1  UNL1       -0.0034
     11 C          62.5882   84.2748   12.8073 C.ar    1  UNL1        0.0064
     12 C          63.4487   84.7872   13.9241 C.ar    1  UNL1        0.0345
     13 BR         63.8480   83.8721   15.0436 Br      1  UNL1       -0.0490
     14 C          63.9099   86.2145   13.9213 C.ar    1  UNL1        0.0064
     15 C          63.5106   87.1295   12.8019 C.ar    1  UNL1       -0.0034
     16 C          62.8024   88.9258   10.5029 C.3     1  UNL1        0.0579
     17 C          62.5874   89.8698   11.6486 C.2     1  UNL1        0.0989
     18 N          61.2911   89.8508   12.4030 N.2     1  UNL1       -0.0908
     19 O          60.6213   89.4228   12.3423 O.2     1  UNL1       -0.4090
     20 H          59.9111   89.5777   12.9336 H       1  UNL1        0.3278
     21 C          63.6688   90.8330   12.0398 C.ar    1  UNL1        0.0342
     22 C          64.2749   91.7391   11.0095 C.ar    1  UNL1        0.0077
     23 C          65.3562   92.7022   11.4007 C.ar    1  UNL1        0.0608
     24 C          65.8314   92.7592   12.8223 C.ar    1  UNL1        0.2610
     25 O          66.9128   93.7224   13.2136 O.2     1  UNL1       -0.2670
     26 N          65.2253   91.8532   13.8527 N.ar    1  UNL1       -0.2921
     27 C          65.7005   91.9102   15.2742 C.3     1  UNL1        0.1336
     28 C          64.1440   90.8901   13.4614 C.ar    1  UNL1        0.0796
@<TRIPOS>BOND
     1     2     3    1
     2     3     4   ar
     3     4     5   ar
     4     5     6   ar
     5     6     7   ar
     6     7     8   ar
     7     8     1    1
     8     1    16    1
     9    16    17    1
    10    17    18    2
    11    18    19    1
    12    17    21    1
    13    21    22   ar
    14    22    23   ar
    15    23    24   ar
    16    24    25    2
    17    24    26   ar
    18    26    27    1
    19    26    28   ar
    20     1     9    1
    21     9    10   ar
    22    10    11   ar
    23    11    12   ar
    24    12    13    1
    25    12    14   ar
    26    14    15   ar
    27     8     3   ar
    28    28    21   ar
    29    15     9   ar
    30    19    20    1
@<TRIPOS>MOLECULE
*****
 28 30 0 0 0
SMALL
GASTEIGER

@<TRIPOS>ATOM
      1 C          63.3436   84.2533   12.4902 C.3     1  UNL1        0.0503
      2 C          61.5541   83.6968   14.8329 C.3     1  UNL1        0.0307
      3 C          61.9928   82.5736   13.9407 C.ar    1  UNL1       -0.0255
      4 C          61.5368   81.1721   14.2199 C.ar    1  UNL1       -0.0046
      5 C          61.9755   80.0489   13.3277 C.ar    1  UNL1       -0.0003
      6 C          62.8702   80.3272   12.1564 C.ar    1  UNL1       -0.0003
      7 C          63.3262   81.7286   11.8772 C.ar    1  UNL1       -0.0043
      8 C          62.8875   82.8518   12.7694 C.ar    1  UNL1       -0.0220
      9 C          62.6236   85.0876   11.4726 C.ar    1  UNL1       -0.0180
     10 C          61.6341   86.1239   11.9168 C.ar    1  UNL1       -0.0034
     11 C          60.9141   86.9582   10.8992 C.ar    1  UNL1        0.0064
     12 C          61.1835   86.7562    9.4375 C.ar    1  UNL1        0.0345
     13 BR         60.4634   87.5905    8.4199 Br      1  UNL1       -0.0490
     14 C          62.1729   85.7200    8.9933 C.ar    1  UNL1        0.0064
     15 C          62.8929   84.8857   10.0109 C.ar    1  UNL1       -0.0034
     16 C          64.5196   84.8204   13.2286 C.3     1  UNL1        0.0579
     17 C          64.4317   85.0625   14.7063 C.2     1  UNL1        0.0989
     18 N          64.6951   83.9411   15.6670 N.2     1  UNL1       -0.0908
     19 O          64.8893   83.1727   15.5814 O.2     1  UNL1       -0.4090
     20 H          65.0106   82.6331   16.3378 H       1  UNL1        0.3278
     21 C          64.0804   86.4261   15.2233 C.ar    1  UNL1        0.0342
     22 C          63.3907   86.5714   16.5473 C.ar    1  UNL1        0.0077
     23 C          63.0394   87.9350   17.0643 C.ar    1  UNL1        0.0608
     24 C          63.3778   89.1532   16.2572 C.ar    1  UNL1        0.2610
     25 O          63.0265   90.5168   16.7742 O.2     1  UNL1       -0.2670
     26 N          64.0675   89.0079   14.9332 N.ar    1  UNL1       -0.2921
     27 C          64.4060   90.2261   14.1261 C.3     1  UNL1        0.1336
     28 C          64.4188   87.6443   14.4162 C.ar    1  UNL1        0.0796
@<TRIPOS>BOND
     1     2     3    1
     2     3     4   ar
     3     4     5   ar
     4     5     6   ar
     5     6     7   ar
     6     7     8   ar
     7     8     1    1
     8     1    16    1
     9    16    17    1
    10    17    18    2
    11    18    19    1
    12    17    21    1
    13    21    22   ar
    14    22    23   ar
    15    23    24   ar
    16    24    25    2
    17    24    26   ar
    18    26    27    1
    19    26    28   ar
    20     1     9    1
    21     9    10   ar
    22    10    11   ar
    23    11    12   ar
    24    12    13    1
    25    12    14   ar
    26    14    15   ar
    27     8     3   ar
    28    28    21   ar
    29    15     9   ar
    30    19    20    1
@<TRIPOS>MOLECULE
*****
 28 30 0 0 0
SMALL
GASTEIGER

@<TRIPOS>ATOM
      1 C          63.1082   84.7042   12.3897 C.3     1  UNL1        0.0503
      2 C          64.1713   82.5052   10.6478 C.3     1  UNL1        0.0307
      3 C          63.3251   82.1739   11.8412 C.ar    1  UNL1       -0.0255
      4 C          63.0105   80.7432   12.1637 C.ar    1  UNL1       -0.0046
      5 C          62.1643   80.4120   13.3571 C.ar    1  UNL1       -0.0003
      6 C          61.6327   81.5114   14.2280 C.ar    1  UNL1       -0.0003
      7 C          61.9474   82.9421   13.9056 C.ar    1  UNL1       -0.0043
      8 C          62.7936   83.2734   12.7122 C.ar    1  UNL1       -0.0220
      9 C          62.3616   85.4080   11.2955 C.ar    1  UNL1       -0.0180
     10 C          62.7535   85.1955    9.8633 C.ar    1  UNL1       -0.0034
     11 C          62.0070   85.8994    8.7691 C.ar    1  UNL1        0.0064
     12 C          60.8685   86.8157    9.1071 C.ar    1  UNL1        0.0345
     13 BR         60.1220   87.5196    8.0130 Br      1  UNL1       -0.0490
     14 C          60.4767   87.0282   10.5393 C.ar    1  UNL1        0.0064
     15 C          61.2232   86.3244   11.6335 C.ar    1  UNL1       -0.0034
     16 C          64.1693   85.4311   13.1615 C.3     1  UNL1        0.0579
     17 C          63.7825   86.4644   14.1777 C.2     1  UNL1        0.0989
     18 N          63.2311   86.0399   15.5065 N.2     1  UNL1       -0.0908
     19 O          63.0765   85.3334   15.8418 O.2     1  UNL1       -0.4090
     20 H          62.7229   85.2935   16.7085 H       1  UNL1        0.3278
     21 C          63.9473   87.9222   13.8651 C.ar    1  UNL1        0.0342
     22 C          64.6664   88.8192   14.8285 C.ar    1  UNL1        0.0077
     23 C          64.8312   90.2770   14.5159 C.ar    1  UNL1        0.0608
     24 C          64.2767   90.8377   13.2399 C.ar    1  UNL1        0.2610
     25 O          64.4415   92.2956   12.9273 O.2     1  UNL1       -0.2670
     26 N          63.5576   89.9407   12.2765 N.ar    1  UNL1       -0.2921
     27 C          63.0032   90.5015   11.0005 C.3     1  UNL1        0.1336
     28 C          63.3929   88.4830   12.5891 C.ar    1  UNL1        0.0796
@<TRIPOS>BOND
     1     2     3    1
     2     3     4   ar
     3     4     5   ar
     4     5     6   ar
     5     6     7   ar
     6     7     8   ar
     7     8     1    1
     8     1    16    1
     9    16    17    1
    10    17    18    2
    11    18    19    1
    12    17    21    1
    13    21    22   ar
    14    22    23   ar
    15    23    24   ar
    16    24    25    2
    17    24    26   ar
    18    26    27    1
    19    26    28   ar
    20     1     9    1
    21     9    10   ar
    22    10    11   ar
    23    11    12   ar
    24    12    13    1
    25    12    14   ar
    26    14    15   ar
    27     8     3   ar
    28    28    21   ar
    29    15     9   ar
    30    19    20    1
@<TRIPOS>MOLECULE
*****
 28 30 0 0 0
SMALL
GASTEIGER

@<TRIPOS>ATOM
      1 C          62.0851   86.7972   10.9289 C.3     1  UNL1        0.0503
      2 C          59.4688   87.2223    9.5239 C.3     1  UNL1        0.0307
      3 C          60.5686   86.4596    8.8465 C.ar    1  UNL1       -0.0255
      4 C          60.3603   85.9095    7.4667 C.ar    1  UNL1       -0.0046
      5 C          61.4601   85.1469    6.7894 C.ar    1  UNL1       -0.0003
      6 C          62.7683   84.9344    7.4919 C.ar    1  UNL1       -0.0003
      7 C          62.9766   85.4845    8.8717 C.ar    1  UNL1       -0.0043
      8 C          61.8767   86.2471    9.5490 C.ar    1  UNL1       -0.0220
      9 C          62.6253   88.1849   11.1094 C.ar    1  UNL1       -0.0180
     10 C          62.5498   89.1716    9.9821 C.ar    1  UNL1       -0.0034
     11 C          63.0900   90.5593   10.1626 C.ar    1  UNL1        0.0064
     12 C          63.7057   90.9602   11.4704 C.ar    1  UNL1        0.0345
     13 BR         64.2459   92.3479   11.6509 Br      1  UNL1       -0.0490
     14 C          63.7812   89.9735   12.5976 C.ar    1  UNL1        0.0064
     15 C          63.2410   88.5859   12.4171 C.ar    1  UNL1       -0.0034
     16 C          61.7533   85.9597   12.1282 C.3     1  UNL1        0.0579
     17 C          62.7841   85.0361   12.7064 C.2     1  UNL1        0.0989
     18 N          63.7636   85.5465   13.7213 N.2     1  UNL1       -0.0908
     19 O          63.8864   86.2553   14.0648 O.2     1  UNL1       -0.4090
     20 H          64.5745   86.3590   14.6923 H       1  UNL1        0.3278
     21 C          62.8354   83.6019   12.2697 C.ar    1  UNL1        0.0342
     22 C          63.4031   83.2464   10.9276 C.ar    1  UNL1        0.0077
     23 C          63.4544   81.8123   10.4910 C.ar    1  UNL1        0.0608
     24 C          62.9379   80.7337   11.3964 C.ar    1  UNL1        0.2610
     25 O          62.9892   79.2996   10.9597 O.2     1  UNL1       -0.2670
     26 N          62.3701   81.0892   12.7385 N.ar    1  UNL1       -0.2921
     27 C          61.8536   80.0106   13.6439 C.3     1  UNL1        0.1336
     28 C          62.3189   82.5233   13.1751 C.ar    1  UNL1        0.0796
@<TRIPOS>BOND
     1     2     3    1
     2     3     4   ar
     3     4     5   ar
     4     5     6   ar
     5     6     7   ar
     6     7     8   ar
     7     8     1    1
     8     1    16    1
     9    16    17    1
    10    17    18    2
    11    18    19    1
    12    17    21    1
    13    21    22   ar
    14    22    23   ar
    15    23    24   ar
    16    24    25    2
    17    24    26   ar
    18    26    27    1
    19    26    28   ar
    20     1     9    1
    21     9    10   ar
    22    10    11   ar
    23    11    12   ar
    24    12    13    1
    25    12    14   ar
    26    14    15   ar
    27     8     3   ar
    28    28    21   ar
    29    15     9   ar
    30    19    20    1
@<TRIPOS>MOLECULE
*****
 28 30 0 0 0
SMALL
GASTEIGER

@<TRIPOS>ATOM
      1 C          64.2013   90.3188   14.2996 C.3     1  UNL1        0.0503
      2 C          62.8547   90.0004   16.9614 C.3     1  UNL1        0.0307
      3 C          63.3677   88.7946   16.2315 C.ar    1  UNL1       -0.0255
      4 C          63.2075   87.4296   16.8324 C.ar    1  UNL1       -0.0046
      5 C          63.7206   86.2238   16.1025 C.ar    1  UNL1       -0.0003
      6 C          64.3939   86.3830   14.7716 C.ar    1  UNL1       -0.0003
      7 C          64.5541   87.7480   14.1707 C.ar    1  UNL1       -0.0043
      8 C          64.0411   88.9538   14.9006 C.ar    1  UNL1       -0.0220
      9 C          65.3902   91.1607   14.6570 C.ar    1  UNL1       -0.0180
     10 C          66.5996   91.1658   13.7696 C.ar    1  UNL1       -0.0034
     11 C          67.7885   92.0078   14.1270 C.ar    1  UNL1        0.0064
     12 C          67.7680   92.8446   15.3718 C.ar    1  UNL1        0.0345
     13 BR         68.9569   93.6865   15.7292 Br      1  UNL1       -0.0490
     14 C          66.5586   92.8394   16.2591 C.ar    1  UNL1        0.0064
     15 C          65.3698   91.9975   15.9017 C.ar    1  UNL1       -0.0034
     16 C          63.1728   90.8418   13.3413 C.3     1  UNL1        0.0579
     17 C          63.3452   90.6296   11.8665 C.2     1  UNL1        0.0989
     18 N          64.2656   91.5182   11.0834 N.2     1  UNL1       -0.0908
     19 O          64.7324   92.1361   11.2725 O.2     1  UNL1       -0.4090
     20 H          65.2400   92.5601   10.6088 H       1  UNL1        0.3278
     21 C          62.5972   89.5286   11.1747 C.ar    1  UNL1        0.0342
     22 C          62.7879   88.1052   11.6075 C.ar    1  UNL1        0.0077
     23 C          62.0399   87.0044   10.9157 C.ar    1  UNL1        0.0608
     24 C          61.1012   87.3270    9.7911 C.ar    1  UNL1        0.2610
     25 O          60.3532   86.2260    9.0993 O.2     1  UNL1       -0.2670
     26 N          60.9105   88.7504    9.3583 N.ar    1  UNL1       -0.2921
     27 C          59.9717   89.0730    8.2337 C.3     1  UNL1        0.1336
     28 C          61.6584   89.8512   10.0501 C.ar    1  UNL1        0.0796
@<TRIPOS>BOND
     1     2     3    1
     2     3     4   ar
     3     4     5   ar
     4     5     6   ar
     5     6     7   ar
     6     7     8   ar
     7     8     1    1
     8     1    16    1
     9    16    17    1
    10    17    18    2
    11    18    19    1
    12    17    21    1
    13    21    22   ar
    14    22    23   ar
    15    23    24   ar
    16    24    25    2
    17    24    26   ar
    18    26    27    1
    19    26    28   ar
    20     1     9    1
    21     9    10   ar
    22    10    11   ar
    23    11    12   ar
    24    12    13    1
    25    12    14   ar
    26    14    15   ar
    27     8     3   ar
    28    28    21   ar
    29    15     9   ar
    30    19    20    1
@<TRIPOS>MOLECULE
*****
 28 30 0 0 0
SMALL
GASTEIGER

@<TRIPOS>ATOM
      1 C          64.4608   90.7547   13.2072 C.3     1  UNL1        0.0503
      2 C          66.1267   92.5907   14.8966 C.3     1  UNL1        0.0307
      3 C          65.9174   92.8932   13.4424 C.ar    1  UNL1       -0.0255
      4 C          66.5410   94.1136   12.8329 C.ar    1  UNL1       -0.0046
      5 C          66.3318   94.4161   11.3786 C.ar    1  UNL1       -0.0003
      6 C          65.4989   93.4981   10.5340 C.ar    1  UNL1       -0.0003
      7 C          64.8753   92.2776   11.1435 C.ar    1  UNL1       -0.0043
      8 C          65.0845   91.9752   12.5977 C.ar    1  UNL1       -0.0220
      9 C          63.3412   90.0514   12.4989 C.ar    1  UNL1       -0.0180
     10 C          62.1120   90.8122   12.0982 C.ar    1  UNL1       -0.0034
     11 C          60.9923   90.1089   11.3899 C.ar    1  UNL1        0.0064
     12 C          61.1018   88.6448   11.0824 C.ar    1  UNL1        0.0345
     13 BR         59.9821   87.9415   10.3741 Br      1  UNL1       -0.0490
     14 C          62.3309   87.8841   11.4831 C.ar    1  UNL1        0.0064
     15 C          63.4505   88.5874   12.1914 C.ar    1  UNL1       -0.0034
     16 C          64.9569   90.2375   14.5249 C.3     1  UNL1        0.0579
     17 C          63.9802   89.8766   15.6047 C.2     1  UNL1        0.0989
     18 N          63.3125   90.9564   16.4035 N.2     1  UNL1       -0.0908
     19 O          63.3497   91.7527   16.3981 O.2     1  UNL1       -0.4090
     20 H          62.8328   92.2500   17.0010 H       1  UNL1        0.3278
     21 C          63.6712   88.4359   15.8856 C.ar    1  UNL1        0.0342
     22 C          62.8398   88.0657   17.0779 C.ar    1  UNL1        0.0077
     23 C          62.5309   86.6250   17.3588 C.ar    1  UNL1        0.0608
     24 C          63.0534   85.5545   16.4473 C.ar    1  UNL1        0.2610
     25 O          62.7445   84.1137   16.7282 O.2     1  UNL1       -0.2670
     26 N          63.8848   85.9246   15.2549 N.ar    1  UNL1       -0.2921
     27 C          64.4073   84.8540   14.3434 C.3     1  UNL1        0.1336
     28 C          64.1937   87.3653   14.9741 C.ar    1  UNL1        0.0796
@<TRIPOS>BOND
     1     2     3    1
     2     3     4   ar
     3     4     5   ar
     4     5     6   ar
     5     6     7   ar
     6     7     8   ar
     7     8     1    1
     8     1    16    1
     9    16    17    1
    10    17    18    2
    11    18    19    1
    12    17    21    1
    13    21    22   ar
    14    22    23   ar
    15    23    24   ar
    16    24    25    2
    17    24    26   ar
    18    26    27    1
    19    26    28   ar
    20     1     9    1
    21     9    10   ar
    22    10    11   ar
    23    11    12   ar
    24    12    13    1
    25    12    14   ar
    26    14    15   ar
    27     8     3   ar
    28    28    21   ar
    29    15     9   ar
    30    19    20    1
