@<TRIPOS>MOLECULE
*****
 27 29 0 0 0
SMALL
GASTEIGER

@<TRIPOS>ATOM
      1 C          65.7409   91.6146   14.5685 C.ar    1  UNL1        0.0534
      2 C          65.2170   90.3368   15.1541 C.ar    1  UNL1        0.0045
      3 C          64.2801   89.4763   14.3593 C.ar    1  UNL1        0.0001
      4 C          63.8670   89.8935   12.9790 C.ar    1  UNL1       -0.0002
      5 C          62.9300   89.0330   12.1843 C.ar    1  UNL1       -0.0017
      6 C          62.5169   89.4502   10.8040 C.ar    1  UNL1        0.0070
      7 C          63.0407   90.7280   10.2184 C.ar    1  UNL1       -0.0017
      8 C          63.9777   91.5885   11.0131 C.ar    1  UNL1       -0.0002
      9 C          64.3908   91.1712   12.3935 C.ar    1  UNL1        0.0001
     10 C          65.3278   92.0318   13.1882 C.ar    1  UNL1        0.0045
     11 C          68.9362   93.7419   15.5757 C.3     1  UNL1        0.1109
     12 N          67.9992   92.8814   14.7810 N.am    1  UNL1       -0.2992
     13 C          66.6779   92.4751   15.3632 C.2     1  UNL1        0.2459
     14 O          66.2935   92.9293   16.7401 O.2     1  UNL1       -0.2701
     15 H          68.2515   92.5833   13.8773 H       1  UNL1        0.1498
     16 C          61.5799   88.5897   10.0093 C.3     1  UNL1        0.1410
     17 O          62.7279   88.1172    9.1674 O.3     1  UNL1       -0.3771
     18 H          63.5466   88.5400    9.4704 H       1  UNL1        0.2112
     19 C          60.4319   89.0621   10.8513 C.ar    1  UNL1        0.0825
     20 C          59.8576   90.4477   10.8614 C.ar    1  UNL1        0.1157
     21 N          58.7274   90.4739   11.8473 N.ar    1  UNL1       -0.2228
     22 C          58.6032   89.1043   12.4464 C.ar    1  UNL1        0.1749
     23 N          59.6567   88.2318   11.8308 N.ar    1  UNL1       -0.3361
     24 H          59.8120   87.2811   12.0340 H       1  UNL1        0.1673
     25 C          60.6429   87.7292    9.2146 C.3     1  UNL1        0.0340
     26 C          60.6888   86.2370    9.3606 C.3     1  UNL1        0.0031
     27 C          59.6601   88.3608    8.2738 C.3     1  UNL1        0.0031
@<TRIPOS>BOND
     1    11    12    1
     2    12    13   am
     3    13    14    2
     4    13     1    1
     5     1     2   ar
     6     2     3   ar
     7     3     4   ar
     8     4     5   ar
     9     5     6   ar
    10     6    16    1
    11    16    17    1
    12    16    19    1
    13    19    20   ar
    14    20    21   ar
    15    21    22   ar
    16    22    23   ar
    17    16    25    1
    18    25    26    1
    19    25    27    1
    20     6     7   ar
    21     7     8   ar
    22     8     9   ar
    23     9    10   ar
    24    10     1   ar
    25     9     4   ar
    26    23    19   ar
    27    12    15    1
    28    17    18    1
    29    23    24    1
@<TRIPOS>MOLECULE
*****
 27 29 0 0 0
SMALL
GASTEIGER

@<TRIPOS>ATOM
      1 C          66.0100   92.1254   14.1134 C.ar    1  UNL1        0.0534
      2 C          65.7068   92.8997   12.8650 C.ar    1  UNL1        0.0045
      3 C          64.7714   92.3322   11.8389 C.ar    1  UNL1        0.0001
      4 C          64.1392   90.9902   12.0612 C.ar    1  UNL1       -0.0002
      5 C          63.2037   90.4227   11.0351 C.ar    1  UNL1       -0.0017
      6 C          62.5715   89.0807   11.2573 C.ar    1  UNL1        0.0070
      7 C          62.8747   88.3063   12.5057 C.ar    1  UNL1       -0.0017
      8 C          63.8101   88.8738   13.5318 C.ar    1  UNL1       -0.0002
      9 C          64.4423   90.2159   13.3095 C.ar    1  UNL1        0.0001
     10 C          65.3778   90.7834   14.3356 C.ar    1  UNL1        0.0045
     11 C          69.2581   93.6986   15.7641 C.3     1  UNL1        0.1109
     12 N          68.3226   93.1310   14.7380 N.am    1  UNL1       -0.2992
     13 C          66.9454   92.6929   15.1395 C.2     1  UNL1        0.2459
     14 O          66.5036   92.8223   16.5670 O.2     1  UNL1       -0.2701
     15 H          68.6126   93.0461   13.8010 H       1  UNL1        0.1498
     16 C          61.6361   88.5132   10.2312 C.3     1  UNL1        0.1410
     17 O          62.8065   87.9804    9.4590 O.3     1  UNL1       -0.3771
     18 H          63.6291   88.2116    9.9181 H       1  UNL1        0.2112
     19 C          60.4657   89.0460   11.0034 C.ar    1  UNL1        0.0825
     20 C          59.9777   90.4643   10.9976 C.ar    1  UNL1        0.1157
     21 N          58.7883   90.5489   11.9077 N.ar    1  UNL1       -0.2228
     22 C          58.5413   89.1828   12.4758 C.ar    1  UNL1        0.1749
     23 N          59.5780   88.2540   11.9170 N.ar    1  UNL1       -0.3361
     24 H          59.6613   87.2932   12.1150 H       1  UNL1        0.1673
     25 C          60.7007   87.9456    9.2051 C.3     1  UNL1        0.0340
     26 C          60.5088   86.4614    9.1046 C.3     1  UNL1        0.0031
     27 C          59.9571   88.8624    8.2795 C.3     1  UNL1        0.0031
@<TRIPOS>BOND
     1    11    12    1
     2    12    13   am
     3    13    14    2
     4    13     1    1
     5     1     2   ar
     6     2     3   ar
     7     3     4   ar
     8     4     5   ar
     9     5     6   ar
    10     6    16    1
    11    16    17    1
    12    16    19    1
    13    19    20   ar
    14    20    21   ar
    15    21    22   ar
    16    22    23   ar
    17    16    25    1
    18    25    26    1
    19    25    27    1
    20     6     7   ar
    21     7     8   ar
    22     8     9   ar
    23     9    10   ar
    24    10     1   ar
    25     9     4   ar
    26    23    19   ar
    27    12    15    1
    28    17    18    1
    29    23    24    1
@<TRIPOS>MOLECULE
*****
 27 29 0 0 0
SMALL
GASTEIGER

@<TRIPOS>ATOM
      1 C          64.1743   89.4386   13.6346 C.ar    1  UNL1        0.0534
      2 C          63.3883   89.0183   12.4281 C.ar    1  UNL1        0.0045
      3 C          62.9568   87.5899   12.2744 C.ar    1  UNL1        0.0001
      4 C          63.3112   86.5819   13.3271 C.ar    1  UNL1       -0.0002
      5 C          62.8797   85.1536   13.1734 C.ar    1  UNL1       -0.0017
      6 C          63.2342   84.1456   14.2261 C.ar    1  UNL1        0.0070
      7 C          64.0203   84.5659   15.4326 C.ar    1  UNL1       -0.0017
      8 C          64.4518   85.9942   15.5863 C.ar    1  UNL1       -0.0002
      9 C          64.0973   87.0023   14.5335 C.ar    1  UNL1        0.0001
     10 C          64.5288   88.4306   14.6872 C.ar    1  UNL1        0.0045
     11 C          66.0555   92.6636   14.9800 C.3     1  UNL1        0.1109
     12 N          65.6240   91.2353   14.8263 N.am    1  UNL1       -0.2992
     13 C          64.6058   90.8670   13.7883 C.2     1  UNL1        0.2459
     14 O          64.0191   91.9270   12.9040 O.2     1  UNL1       -0.2701
     15 H          66.0091   90.5395   15.4067 H       1  UNL1        0.1498
     16 C          62.8027   82.7172   14.0724 C.3     1  UNL1        0.1410
     17 O          62.2475   82.7350   15.4657 O.3     1  UNL1       -0.3771
     18 H          62.3909   83.6097   15.8598 H       1  UNL1        0.2112
     19 C          63.3579   82.6995   12.6790 C.ar    1  UNL1        0.0825
     20 C          64.7983   82.8796   12.3016 C.ar    1  UNL1        0.1157
     21 N          64.9008   82.7899   10.8078 N.ar    1  UNL1       -0.2228
     22 C          63.5236   82.5543   10.2620 C.ar    1  UNL1        0.1749
     23 N          62.5700   82.4984   11.4186 N.ar    1  UNL1       -0.3361
     24 H          61.5978   82.3550   11.3606 H       1  UNL1        0.1673
     25 C          62.3712   81.2889   13.9186 C.3     1  UNL1        0.0340
     26 C          63.3920   80.2206   13.6604 C.3     1  UNL1        0.0031
     27 C          60.9187   80.9288   14.0232 C.3     1  UNL1        0.0031
@<TRIPOS>BOND
     1    11    12    1
     2    12    13   am
     3    13    14    2
     4    13     1    1
     5     1     2   ar
     6     2     3   ar
     7     3     4   ar
     8     4     5   ar
     9     5     6   ar
    10     6    16    1
    11    16    17    1
    12    16    19    1
    13    19    20   ar
    14    20    21   ar
    15    21    22   ar
    16    22    23   ar
    17    16    25    1
    18    25    26    1
    19    25    27    1
    20     6     7   ar
    21     7     8   ar
    22     8     9   ar
    23     9    10   ar
    24    10     1   ar
    25     9     4   ar
    26    23    19   ar
    27    12    15    1
    28    17    18    1
    29    23    24    1
@<TRIPOS>MOLECULE
*****
 27 29 0 0 0
SMALL
GASTEIGER

@<TRIPOS>ATOM
      1 C          65.7117   92.3880   12.8497 C.ar    1  UNL1        0.0534
      2 C          65.7086   92.7879   11.4041 C.ar    1  UNL1        0.0045
      3 C          64.7278   92.1647   10.4556 C.ar    1  UNL1        0.0001
      4 C          63.7500   91.1416   10.9528 C.ar    1  UNL1       -0.0002
      5 C          62.7692   90.5184   10.0043 C.ar    1  UNL1       -0.0017
      6 C          61.7915   89.4953   10.5015 C.ar    1  UNL1        0.0070
      7 C          61.7946   89.0953   11.9473 C.ar    1  UNL1       -0.0017
      8 C          62.7754   89.7185   12.8957 C.ar    1  UNL1       -0.0002
      9 C          63.7532   90.7417   12.3985 C.ar    1  UNL1        0.0001
     10 C          64.7340   91.3648   13.3469 C.ar    1  UNL1        0.0045
     11 C          68.7786   92.8071   15.3334 C.3     1  UNL1        0.1109
     12 N          67.7977   92.1839   14.3849 N.am    1  UNL1       -0.2992
     13 C          66.6926   93.0111   13.7982 C.2     1  UNL1        0.2459
     14 O          66.5683   94.4615   14.1599 O.2     1  UNL1       -0.2701
     15 H          67.8793   91.2320   14.1475 H       1  UNL1        0.1498
     16 C          60.8107   88.8721    9.5531 C.3     1  UNL1        0.1410
     17 O          60.2436   90.2271    9.2492 O.3     1  UNL1       -0.3771
     18 H          60.7193   90.8991    9.7620 H       1  UNL1        0.2112
     19 C          61.3777   87.5171    9.8569 C.ar    1  UNL1        0.0825
     20 C          62.3274   86.7443    8.9905 C.ar    1  UNL1        0.1157
     21 N          62.6313   85.4466    9.6786 N.ar    1  UNL1       -0.2228
     22 C          61.8695   85.4174   10.9704 C.ar    1  UNL1        0.1749
     23 N          61.0947   86.6971   11.0806 N.ar    1  UNL1       -0.3361
     24 H          60.5041   86.9537   11.8253 H       1  UNL1        0.1673
     25 C          59.8298   88.2489    8.6046 C.3     1  UNL1        0.0340
     26 C          59.1501   86.9618    8.9671 C.3     1  UNL1        0.0031
     27 C          59.5287   88.9129    7.2936 C.3     1  UNL1        0.0031
@<TRIPOS>BOND
     1    11    12    1
     2    12    13   am
     3    13    14    2
     4    13     1    1
     5     1     2   ar
     6     2     3   ar
     7     3     4   ar
     8     4     5   ar
     9     5     6   ar
    10     6    16    1
    11    16    17    1
    12    16    19    1
    13    19    20   ar
    14    20    21   ar
    15    21    22   ar
    16    22    23   ar
    17    16    25    1
    18    25    26    1
    19    25    27    1
    20     6     7   ar
    21     7     8   ar
    22     8     9   ar
    23     9    10   ar
    24    10     1   ar
    25     9     4   ar
    26    23    19   ar
    27    12    15    1
    28    17    18    1
    29    23    24    1
@<TRIPOS>MOLECULE
*****
 27 29 0 0 0
SMALL
GASTEIGER

@<TRIPOS>ATOM
      1 C          61.6166   88.3746   10.1926 C.ar    1  UNL1        0.0534
      2 C          61.7837   89.7410    9.5969 C.ar    1  UNL1        0.0045
      3 C          62.6424   90.7597   10.2861 C.ar    1  UNL1        0.0001
      4 C          63.3338   90.4120   11.5710 C.ar    1  UNL1       -0.0002
      5 C          64.1925   91.4308   12.2601 C.ar    1  UNL1       -0.0017
      6 C          64.8839   91.0831   13.5450 C.ar    1  UNL1        0.0070
      7 C          64.7168   89.7166   14.1407 C.ar    1  UNL1       -0.0017
      8 C          63.8582   88.6978   13.4516 C.ar    1  UNL1       -0.0002
      9 C          63.1667   89.0456   12.1666 C.ar    1  UNL1        0.0001
     10 C          62.3081   88.0269   11.4775 C.ar    1  UNL1        0.0045
     11 C          58.9129   86.7703    7.7706 C.3     1  UNL1        0.1109
     12 N          59.7716   87.7890    8.4597 N.am    1  UNL1       -0.2992
     13 C          60.7580   87.3559    9.5034 C.2     1  UNL1        0.2459
     14 O          60.8857   85.9040    9.8580 O.2     1  UNL1       -0.2701
     15 H          59.6877   88.7419    8.2270 H       1  UNL1        0.1498
     16 C          65.7426   92.1018   14.2342 C.3     1  UNL1        0.1410
     17 O          64.8574   92.0300   15.4430 O.3     1  UNL1       -0.3771
     18 H          64.1432   91.3934   15.2834 H       1  UNL1        0.2112
     19 C          66.6277   92.1736   13.0253 C.ar    1  UNL1        0.0825
     20 C          68.0295   91.6491   12.9266 C.ar    1  UNL1        0.1157
     21 N          68.5346   91.9338   11.5432 N.ar    1  UNL1       -0.2228
     22 C          67.4449   92.6342   10.7869 C.ar    1  UNL1        0.1749
     23 N          66.2664   92.7824   11.7030 N.ar    1  UNL1       -0.3361
     24 H          65.4067   93.2051   11.4761 H       1  UNL1        0.1673
     25 C          66.6012   93.1205   14.9233 C.3     1  UNL1        0.0340
     26 C          66.8751   94.4398   14.2643 C.3     1  UNL1        0.0031
     27 C          67.1859   92.8199   16.2716 C.3     1  UNL1        0.0031
@<TRIPOS>BOND
     1    11    12    1
     2    12    13   am
     3    13    14    2
     4    13     1    1
     5     1     2   ar
     6     2     3   ar
     7     3     4   ar
     8     4     5   ar
     9     5     6   ar
    10     6    16    1
    11    16    17    1
    12    16    19    1
    13    19    20   ar
    14    20    21   ar
    15    21    22   ar
    16    22    23   ar
    17    16    25    1
    18    25    26    1
    19    25    27    1
    20     6     7   ar
    21     7     8   ar
    22     8     9   ar
    23     9    10   ar
    24    10     1   ar
    25     9     4   ar
    26    23    19   ar
    27    12    15    1
    28    17    18    1
    29    23    24    1
@<TRIPOS>MOLECULE
*****
 27 29 0 0 0
SMALL
GASTEIGER

@<TRIPOS>ATOM
      1 C          65.3493   91.0742   14.2070 C.ar    1  UNL1        0.0534
      2 C          64.7214   89.7985   14.6845 C.ar    1  UNL1        0.0045
      3 C          63.7099   89.0944   13.8293 C.ar    1  UNL1        0.0001
      4 C          63.3263   89.6662   12.4967 C.ar    1  UNL1       -0.0002
      5 C          62.3148   88.9622   11.6416 C.ar    1  UNL1       -0.0017
      6 C          61.9312   89.5340   10.3090 C.ar    1  UNL1        0.0070
      7 C          62.5592   90.8098    9.8315 C.ar    1  UNL1       -0.0017
      8 C          63.5707   91.5138   10.6866 C.ar    1  UNL1       -0.0002
      9 C          63.9542   90.9420   12.0192 C.ar    1  UNL1        0.0001
     10 C          64.9658   91.6460   12.8744 C.ar    1  UNL1        0.0045
     11 C          68.8352   92.3451   15.6153 C.3     1  UNL1        0.1109
     12 N          67.8237   91.6411   14.7602 N.am    1  UNL1       -0.2992
     13 C          66.3609   91.7782   15.0621 C.2     1  UNL1        0.2459
     14 O          65.9095   92.6194   16.2191 O.2     1  UNL1       -0.2701
     15 H          68.1200   91.0890   14.0008 H       1  UNL1        0.1498
     16 C          60.9197   88.8300    9.4539 C.3     1  UNL1        0.1410
     17 O          60.3581   90.1541    9.0281 O.3     1  UNL1       -0.3771
     18 H          60.8538   90.8687    9.4576 H       1  UNL1        0.2112
     19 C          61.4813   87.5059    9.8798 C.ar    1  UNL1        0.0825
     20 C          62.4438   86.6635    9.0964 C.ar    1  UNL1        0.1157
     21 N          62.7364   85.4286    9.8962 N.ar    1  UNL1       -0.2228
     22 C          61.9545   85.5080   11.1739 C.ar    1  UNL1        0.1749
     23 N          61.1789   86.7918   11.1637 N.ar    1  UNL1       -0.3361
     24 H          60.5769   87.1099   11.8748 H       1  UNL1        0.1673
     25 C          59.9082   88.1260    8.5988 C.3     1  UNL1        0.0340
     26 C          59.4823   88.7270    7.2922 C.3     1  UNL1        0.0031
     27 C          59.3226   86.8209    9.0504 C.3     1  UNL1        0.0031
@<TRIPOS>BOND
     1    11    12    1
     2    12    13   am
     3    13    14    2
     4    13     1    1
     5     1     2   ar
     6     2     3   ar
     7     3     4   ar
     8     4     5   ar
     9     5     6   ar
    10     6    16    1
    11    16    17    1
    12    16    19    1
    13    19    20   ar
    14    20    21   ar
    15    21    22   ar
    16    22    23   ar
    17    16    25    1
    18    25    26    1
    19    25    27    1
    20     6     7   ar
    21     7     8   ar
    22     8     9   ar
    23     9    10   ar
    24    10     1   ar
    25     9     4   ar
    26    23    19   ar
    27    12    15    1
    28    17    18    1
    29    23    24    1
@<TRIPOS>MOLECULE
*****
 27 29 0 0 0
SMALL
GASTEIGER

@<TRIPOS>ATOM
      1 C          60.2842   88.6326    8.6102 C.ar    1  UNL1        0.0534
      2 C          60.8829   89.7249    9.4459 C.ar    1  UNL1        0.0045
      3 C          61.7241   89.3807   10.6392 C.ar    1  UNL1        0.0001
      4 C          61.9664   87.9443   10.9969 C.ar    1  UNL1       -0.0002
      5 C          62.8075   87.6002   12.1902 C.ar    1  UNL1       -0.0017
      6 C          63.0499   86.1638   12.5479 C.ar    1  UNL1        0.0070
      7 C          62.4511   85.0715   11.7122 C.ar    1  UNL1       -0.0017
      8 C          61.6100   85.4156   10.5188 C.ar    1  UNL1       -0.0002
      9 C          61.3677   86.8521   10.1612 C.ar    1  UNL1        0.0001
     10 C          60.5265   87.1962    8.9678 C.ar    1  UNL1        0.0045
     11 C          58.9448   90.5155    5.3836 C.3     1  UNL1        0.1109
     12 N          59.7860   90.1713    6.5769 N.am    1  UNL1       -0.2992
     13 C          59.4431   88.9768    7.4168 C.2     1  UNL1        0.2459
     14 O          58.2591   88.1264    7.0633 O.2     1  UNL1       -0.2701
     15 H          60.5631   90.7295    6.8089 H       1  UNL1        0.1498
     16 C          63.8910   85.8196   13.7412 C.3     1  UNL1        0.1410
     17 O          63.9972   87.2756   14.0862 O.3     1  UNL1       -0.3771
     18 H          63.5073   87.7992   13.4330 H       1  UNL1        0.2112
     19 C          63.7847   84.3637   13.3963 C.ar    1  UNL1        0.0825
     20 C          62.7675   83.4020   13.9349 C.ar    1  UNL1        0.1157
     21 N          63.0311   82.0579   13.3236 N.ar    1  UNL1       -0.2228
     22 C          64.2114   82.1889   12.4072 C.ar    1  UNL1        0.1749
     23 N          64.6771   83.6140   12.4521 N.ar    1  UNL1       -0.3361
     24 H          65.4354   83.9911   11.9500 H       1  UNL1        0.1673
     25 C          64.7321   85.4755   14.9346 C.3     1  UNL1        0.0340
     26 C          66.1816   85.1330   14.7569 C.3     1  UNL1        0.0031
     27 C          64.1236   85.4739   16.3057 C.3     1  UNL1        0.0031
@<TRIPOS>BOND
     1    11    12    1
     2    12    13   am
     3    13    14    2
     4    13     1    1
     5     1     2   ar
     6     2     3   ar
     7     3     4   ar
     8     4     5   ar
     9     5     6   ar
    10     6    16    1
    11    16    17    1
    12    16    19    1
    13    19    20   ar
    14    20    21   ar
    15    21    22   ar
    16    22    23   ar
    17    16    25    1
    18    25    26    1
    19    25    27    1
    20     6     7   ar
    21     7     8   ar
    22     8     9   ar
    23     9    10   ar
    24    10     1   ar
    25     9     4   ar
    26    23    19   ar
    27    12    15    1
    28    17    18    1
    29    23    24    1
