@<TRIPOS>MOLECULE
*****
 35 38 0 0 0
SMALL
GASTEIGER

@<TRIPOS>ATOM
      1 C          64.6539   91.0449   13.3531 C.3     1  UNL1        0.0503
      2 C          65.8200   91.5468   14.1520 C.ar    1  UNL1       -0.0220
      3 C          67.1864   91.5958   13.5348 C.ar    1  UNL1       -0.0043
      4 C          68.3525   92.0977   14.3337 C.ar    1  UNL1       -0.0003
      5 C          68.1524   92.5505   15.7497 C.ar    1  UNL1       -0.0003
      6 C          66.7861   92.5014   16.3668 C.ar    1  UNL1       -0.0046
      7 C          65.6199   91.9996   15.5679 C.ar    1  UNL1       -0.0255
      8 C          64.2536   91.9505   16.1849 C.3     1  UNL1        0.0307
      9 C          64.2671   89.5971   13.4189 C.ar    1  UNL1       -0.0181
     10 C          63.4255   88.9956   12.3328 C.ar    1  UNL1       -0.0039
     11 C          63.0387   87.5478   12.3985 C.ar    1  UNL1       -0.0003
     12 C          63.4936   86.7015   13.5505 C.ar    1  UNL1       -0.0000
     13 C          64.3353   87.3032   14.6367 C.ar    1  UNL1       -0.0003
     14 C          64.7220   88.7509   14.5709 C.ar    1  UNL1       -0.0039
     15 C          63.1069   85.2538   13.6163 C.ar    1  UNL1        0.0000
     16 C          62.9792   84.4535   12.3541 C.ar    1  UNL1        0.0000
     17 C          62.5924   83.0057   12.4198 C.ar    1  UNL1        0.0011
     18 C          62.3334   82.3582   13.7479 C.ar    1  UNL1        0.0140
     19 C          62.4611   83.1585   15.0101 C.ar    1  UNL1        0.0011
     20 C          62.8478   84.6063   14.9443 C.ar    1  UNL1        0.0000
     21 C          61.9467   80.9104   13.8137 C.2     1  UNL1        0.0729
     22 O          60.6173   80.5144   14.3847 O.co2   1  UNL1       -0.5446
     23 O          62.8893   79.8586   13.3085 O.co2   1  UNL1       -0.5446
     24 C          63.8744   91.9909   12.4884 C.3     1  UNL1        0.0578
     25 C          64.2457   92.1675   11.0459 C.2     1  UNL1        0.0975
     26 N          63.3849   91.5718    9.9715 N.2     1  UNL1       -0.0908
     27 O          62.7132   91.1424    9.9745 O.2     1  UNL1       -0.4090
     28 H          62.3315   90.8642    9.1653 H       1  UNL1        0.3278
     29 C          69.0135   92.3190    8.9855 C.3     1  UNL1        0.0521
     30 C          67.8617   93.0155    9.6474 C.ar    1  UNL1        0.0594
     31 C          66.6296   92.2433   10.0157 C.ar    1  UNL1        0.0160
     32 C          65.4778   92.9398   10.6776 C.ar    1  UNL1        0.0194
     33 C          65.5580   94.4085   10.9713 C.ar    1  UNL1        0.0219
     34 C          66.7901   95.1807   10.6031 C.ar    1  UNL1        0.0985
     35 N          67.9419   94.4842    9.9411 N.ar    1  UNL1       -0.2481
@<TRIPOS>UNITY_ATOM_ATTR
22 1
charge -1
@<TRIPOS>BOND
     1    29    30    1
     2    30    31   ar
     3    31    32   ar
     4    32    25    1
     5    25    24    1
     6    24     1    1
     7     1     9    1
     8     9    10   ar
     9    10    11   ar
    10    11    12   ar
    11    12    15    1
    12    15    16   ar
    13    16    17   ar
    14    17    18   ar
    15    18    21    1
    16    21    22   ar
    17    21    23   ar
    18    18    19   ar
    19    19    20   ar
    20    12    13   ar
    21    13    14   ar
    22     1     2    1
    23     2     3   ar
    24     3     4   ar
    25     4     5   ar
    26     5     6   ar
    27     6     7   ar
    28     7     8    1
    29    25    26    2
    30    26    27    1
    31    32    33   ar
    32    33    34   ar
    33    34    35   ar
    34    35    30   ar
    35    14     9   ar
    36     7     2   ar
    37    20    15   ar
    38    27    28    1
@<TRIPOS>MOLECULE
*****
 35 38 0 0 0
SMALL
GASTEIGER

@<TRIPOS>ATOM
      1 C          63.2904   84.0402   12.6169 C.3     1  UNL1        0.0503
      2 C          62.7988   82.6335   12.7890 C.ar    1  UNL1       -0.0220
      3 C          61.8905   82.2911   13.9326 C.ar    1  UNL1       -0.0043
      4 C          61.3989   80.8845   14.1047 C.ar    1  UNL1       -0.0003
      5 C          61.8156   79.8202   13.1332 C.ar    1  UNL1       -0.0003
      6 C          62.7239   80.1626   11.9896 C.ar    1  UNL1       -0.0046
      7 C          63.2155   81.5693   11.8175 C.ar    1  UNL1       -0.0255
      8 C          64.1238   81.9117   10.6740 C.3     1  UNL1        0.0307
      9 C          62.6109   84.9585   11.6449 C.ar    1  UNL1       -0.0181
     10 C          62.8647   84.8141   10.1736 C.ar    1  UNL1       -0.0039
     11 C          62.1851   85.7325    9.2016 C.ar    1  UNL1       -0.0003
     12 C          61.2517   86.7952    9.7009 C.ar    1  UNL1       -0.0000
     13 C          60.9979   86.9396   11.1722 C.ar    1  UNL1       -0.0003
     14 C          61.6775   86.0213   12.1442 C.ar    1  UNL1       -0.0039
     15 C          60.5721   87.7136    8.7289 C.ar    1  UNL1        0.0000
     16 C          59.7508   87.1459    7.6095 C.ar    1  UNL1        0.0000
     17 C          59.0711   88.0643    6.6375 C.ar    1  UNL1        0.0011
     18 C          59.2129   89.5503    6.7849 C.ar    1  UNL1        0.0140
     19 C          60.0343   90.1179    7.9044 C.ar    1  UNL1        0.0011
     20 C          60.7139   89.1996    8.8764 C.ar    1  UNL1        0.0000
     21 C          58.5333   90.4686    5.8129 C.2     1  UNL1        0.0729
     22 O          59.3502   91.3771    4.9427 O.co2   1  UNL1       -0.5446
     23 O          57.0368   90.4786    5.7112 O.co2   1  UNL1       -0.5446
     24 C          64.4617   84.5285   13.4168 C.3     1  UNL1        0.0578
     25 C          64.3206   84.7523   14.8933 C.2     1  UNL1        0.0975
     26 N          64.5209   83.6122   15.8472 N.2     1  UNL1       -0.0908
     27 O          64.7015   82.8408   15.7582 O.2     1  UNL1       -0.4090
     28 H          64.7808   82.2884   16.5108 H       1  UNL1        0.3278
     29 C          64.4161   89.9221   14.3792 C.3     1  UNL1        0.0521
     30 C          64.0268   88.7011   15.1588 C.ar    1  UNL1        0.0594
     31 C          64.3683   87.3372   14.6363 C.ar    1  UNL1        0.0160
     32 C          63.9790   86.1163   15.4158 C.ar    1  UNL1        0.0194
     33 C          63.2482   86.2592   16.7179 C.ar    1  UNL1        0.0219
     34 C          62.9067   87.6231   17.2404 C.ar    1  UNL1        0.0985
     35 N          63.2960   88.8441   16.4609 N.ar    1  UNL1       -0.2481
@<TRIPOS>UNITY_ATOM_ATTR
22 1
charge -1
@<TRIPOS>BOND
     1    29    30    1
     2    30    31   ar
     3    31    32   ar
     4    32    25    1
     5    25    24    1
     6    24     1    1
     7     1     9    1
     8     9    10   ar
     9    10    11   ar
    10    11    12   ar
    11    12    15    1
    12    15    16   ar
    13    16    17   ar
    14    17    18   ar
    15    18    21    1
    16    21    22   ar
    17    21    23   ar
    18    18    19   ar
    19    19    20   ar
    20    12    13   ar
    21    13    14   ar
    22     1     2    1
    23     2     3   ar
    24     3     4   ar
    25     4     5   ar
    26     5     6   ar
    27     6     7   ar
    28     7     8    1
    29    25    26    2
    30    26    27    1
    31    32    33   ar
    32    33    34   ar
    33    34    35   ar
    34    35    30   ar
    35    14     9   ar
    36     7     2   ar
    37    20    15   ar
    38    27    28    1
@<TRIPOS>MOLECULE
*****
 35 38 0 0 0
SMALL
GASTEIGER

@<TRIPOS>ATOM
      1 C          63.4361   83.7855   12.4695 C.3     1  UNL1        0.0503
      2 C          62.9320   82.3817   12.6288 C.ar    1  UNL1       -0.0220
      3 C          63.3276   81.3259   11.6394 C.ar    1  UNL1       -0.0043
      4 C          62.8236   79.9222   11.7987 C.ar    1  UNL1       -0.0003
      5 C          61.9239   79.5742   12.9474 C.ar    1  UNL1       -0.0003
      6 C          61.5283   80.6300   13.9368 C.ar    1  UNL1       -0.0046
      7 C          62.0324   82.0337   13.7775 C.ar    1  UNL1       -0.0255
      8 C          61.6368   83.0895   14.7668 C.3     1  UNL1        0.0307
      9 C          62.7424   84.7297   11.5330 C.ar    1  UNL1       -0.0181
     10 C          61.7845   85.7509   12.0710 C.ar    1  UNL1       -0.0039
     11 C          61.0907   86.6952   11.1345 C.ar    1  UNL1       -0.0003
     12 C          61.3548   86.6183    9.6600 C.ar    1  UNL1       -0.0000
     13 C          62.3128   85.5970    9.1219 C.ar    1  UNL1       -0.0003
     14 C          63.0065   84.6528   10.0584 C.ar    1  UNL1       -0.0039
     15 C          60.6611   87.5625    8.7234 C.ar    1  UNL1        0.0000
     16 C          59.8758   87.0264    7.5634 C.ar    1  UNL1        0.0000
     17 C          59.1820   87.9706    6.6268 C.ar    1  UNL1        0.0011
     18 C          59.2736   89.4510    6.8504 C.ar    1  UNL1        0.0140
     19 C          60.0590   89.9872    8.0105 C.ar    1  UNL1        0.0011
     20 C          60.7527   89.0430    8.9470 C.ar    1  UNL1        0.0000
     21 C          58.5799   90.3953    5.9138 C.2     1  UNL1        0.0729
     22 O          57.0821   90.4061    5.8330 O.co2   1  UNL1       -0.5446
     23 O          59.3839   91.3288    5.0581 O.co2   1  UNL1       -0.5446
     24 C          64.6340   84.2450   13.2467 C.3     1  UNL1        0.0578
     25 C          64.5366   84.4360   14.7313 C.2     1  UNL1        0.0975
     26 N          64.8294   83.2916   15.6556 N.2     1  UNL1       -0.0908
     27 O          65.0452   82.5321   15.5456 O.2     1  UNL1       -0.4090
     28 H          65.1801   81.9716   16.2843 H       1  UNL1        0.3278
     29 C          62.4810   87.2824   18.5619 C.3     1  UNL1        0.0521
     30 C          63.1185   87.1948   17.2069 C.ar    1  UNL1        0.0594
     31 C          63.5088   85.8593   16.6466 C.ar    1  UNL1        0.0160
     32 C          64.1463   85.7717   15.2916 C.ar    1  UNL1        0.0194
     33 C          64.3936   87.0196   14.4970 C.ar    1  UNL1        0.0219
     34 C          64.0033   88.3551   15.0573 C.ar    1  UNL1        0.0985
     35 N          63.3658   88.4427   16.4123 N.ar    1  UNL1       -0.2481
@<TRIPOS>UNITY_ATOM_ATTR
22 1
charge -1
@<TRIPOS>BOND
     1    29    30    1
     2    30    31   ar
     3    31    32   ar
     4    32    25    1
     5    25    24    1
     6    24     1    1
     7     1     9    1
     8     9    10   ar
     9    10    11   ar
    10    11    12   ar
    11    12    15    1
    12    15    16   ar
    13    16    17   ar
    14    17    18   ar
    15    18    21    1
    16    21    22   ar
    17    21    23   ar
    18    18    19   ar
    19    19    20   ar
    20    12    13   ar
    21    13    14   ar
    22     1     2    1
    23     2     3   ar
    24     3     4   ar
    25     4     5   ar
    26     5     6   ar
    27     6     7   ar
    28     7     8    1
    29    25    26    2
    30    26    27    1
    31    32    33   ar
    32    33    34   ar
    33    34    35   ar
    34    35    30   ar
    35    14     9   ar
    36     7     2   ar
    37    20    15   ar
    38    27    28    1
@<TRIPOS>MOLECULE
*****
 35 38 0 0 0
SMALL
GASTEIGER

@<TRIPOS>ATOM
      1 C          61.9689   87.7968   11.5627 C.3     1  UNL1        0.0503
      2 C          62.4219   86.5964   10.7856 C.ar    1  UNL1       -0.0220
      3 C          62.6141   86.6929    9.3010 C.ar    1  UNL1       -0.0043
      4 C          63.0671   85.4926    8.5239 C.ar    1  UNL1       -0.0003
      5 C          63.3278   84.1957    9.2313 C.ar    1  UNL1       -0.0003
      6 C          63.1356   84.0993   10.7157 C.ar    1  UNL1       -0.0046
      7 C          62.6826   85.2997   11.4929 C.ar    1  UNL1       -0.0255
      8 C          62.4904   85.2033   12.9774 C.3     1  UNL1        0.0307
      9 C          62.9786   88.6838   12.2289 C.ar    1  UNL1       -0.0181
     10 C          63.6786   88.2213   13.4722 C.ar    1  UNL1       -0.0039
     11 C          64.6884   89.1082   14.1384 C.ar    1  UNL1       -0.0003
     12 C          64.9980   90.4577   13.5613 C.ar    1  UNL1       -0.0000
     13 C          64.2978   90.9202   12.3179 C.ar    1  UNL1       -0.0003
     14 C          63.2882   90.0332   11.6517 C.ar    1  UNL1       -0.0039
     15 C          66.0076   91.3446   14.2274 C.ar    1  UNL1        0.0000
     16 C          67.3262   91.6105   13.5636 C.ar    1  UNL1        0.0000
     17 C          68.3360   92.4975   14.2298 C.ar    1  UNL1        0.0011
     18 C          68.0271   93.1186   15.5598 C.ar    1  UNL1        0.0140
     19 C          66.7084   92.8527   16.2236 C.ar    1  UNL1        0.0011
     20 C          65.6988   91.9658   15.5574 C.ar    1  UNL1        0.0000
     21 C          69.0368   94.0055   16.2259 C.2     1  UNL1        0.0729
     22 O          70.2775   93.4120   16.8245 O.co2   1  UNL1       -0.5446
     23 O          68.8057   95.4862   16.2935 O.co2   1  UNL1       -0.5446
     24 C          60.5061   88.1102   11.6737 C.3     1  UNL1        0.0578
     25 C          59.8696   89.0694   10.7121 C.2     1  UNL1        0.0975
     26 N          59.4762   90.4420   11.1719 N.2     1  UNL1       -0.0908
     27 O          59.5251   90.8282   11.8675 O.2     1  UNL1       -0.4090
     28 H          59.2099   91.7078   11.9382 H       1  UNL1        0.3278
     29 C          59.5045   90.2824    5.6727 C.3     1  UNL1        0.0521
     30 C          59.4439   89.2627    6.7711 C.ar    1  UNL1        0.0594
     31 C          59.6870   89.6759    8.1924 C.ar    1  UNL1        0.0160
     32 C          59.6264   88.6561    9.2908 C.ar    1  UNL1        0.0194
     33 C          59.3226   87.2232    8.9679 C.ar    1  UNL1        0.0219
     34 C          59.0794   86.8100    7.5466 C.ar    1  UNL1        0.0985
     35 N          59.1401   87.8297    6.4482 N.ar    1  UNL1       -0.2481
@<TRIPOS>UNITY_ATOM_ATTR
22 1
charge -1
@<TRIPOS>BOND
     1    29    30    1
     2    30    31   ar
     3    31    32   ar
     4    32    25    1
     5    25    24    1
     6    24     1    1
     7     1     9    1
     8     9    10   ar
     9    10    11   ar
    10    11    12   ar
    11    12    15    1
    12    15    16   ar
    13    16    17   ar
    14    17    18   ar
    15    18    21    1
    16    21    22   ar
    17    21    23   ar
    18    18    19   ar
    19    19    20   ar
    20    12    13   ar
    21    13    14   ar
    22     1     2    1
    23     2     3   ar
    24     3     4   ar
    25     4     5   ar
    26     5     6   ar
    27     6     7   ar
    28     7     8    1
    29    25    26    2
    30    26    27    1
    31    32    33   ar
    32    33    34   ar
    33    34    35   ar
    34    35    30   ar
    35    14     9   ar
    36     7     2   ar
    37    20    15   ar
    38    27    28    1
