@<TRIPOS>MOLECULE
*****
 42 47 0 0 0
SMALL
GASTEIGER

@<TRIPOS>ATOM
      1 N          65.1842   89.8039   13.6028 N.am    1  UNL1       -0.1892
      2 C          66.2344   90.3296   14.5360 C.2     1  UNL1        0.3220
      3 O          66.8645   89.5753   15.6690 O.2     1  UNL1       -0.2512
      4 N          66.5439   91.7421   14.1370 N.am    1  UNL1       -0.2211
      5 C          65.6850   92.0894   12.9573 C.3     1  UNL1        0.1391
      6 C          64.7676   92.2913   11.7878 C.3     1  UNL1        0.0449
      7 C          64.7518   93.6056   11.0652 C.3     1  UNL1        0.0746
      8 N          65.6534   94.7181   11.5121 N.3     1  UNL1       -0.2676
      9 C          66.5708   94.5162   12.6815 C.3     1  UNL1        0.0746
     10 C          66.5865   93.2018   13.4041 C.3     1  UNL1        0.0449
     11 C          64.8447   90.8915   12.6271 C.2     1  UNL1        0.2529
     12 O          63.8410   90.7977   11.5163 O.2     1  UNL1       -0.2724
     13 C          63.3708   85.6869   13.7112 C.ar    1  UNL1        0.0811
     14 C          64.4133   86.0740   14.7179 C.ar    1  UNL1        0.0204
     15 C          65.0177   87.4464   14.6817 C.ar    1  UNL1        0.0185
     16 C          64.5797   88.4316   13.6389 C.ar    1  UNL1        0.0813
     17 C          63.5373   88.0445   12.6323 C.ar    1  UNL1        0.1141
     18 N          62.9329   86.6722   12.6684 N.ar    1  UNL1       -0.2425
     19 C          63.1838   84.0635   11.1952 C.3     1  UNL1        0.0311
     20 C          62.6728   83.5030   12.4893 C.ar    1  UNL1       -0.0204
     21 C          62.0683   82.1306   12.5254 C.ar    1  UNL1       -0.0031
     22 C          61.5573   81.5699   13.8195 C.ar    1  UNL1        0.0137
     23 C          61.6509   82.3817   15.0775 C.ar    1  UNL1        0.0012
     24 C          62.2553   83.7540   15.0414 C.ar    1  UNL1        0.0012
     25 C          62.7663   84.3146   13.7473 C.ar    1  UNL1        0.0137
     26 C          60.9529   80.1976   13.8556 C.2     1  UNL1        0.0729
     27 O          59.5107   80.0229   14.2295 O.co2   1  UNL1       -0.5446
     28 O          61.7905   78.9999   13.5179 O.co2   1  UNL1       -0.5446
     29 C          67.5378   92.6482   14.8012 C.ar    1  UNL1        0.1583
     30 C          67.1103   93.5214   15.9435 C.ar    1  UNL1        0.1335
     31 N          68.1043   94.4275   16.6076 N.ar    1  UNL1       -0.2378
     32 C          69.5257   94.4605   16.1294 C.ar    1  UNL1        0.1196
     33 C          69.9531   93.5874   14.9870 C.ar    1  UNL1        0.1210
     34 N          68.9591   92.6813   14.3230 N.ar    1  UNL1       -0.2255
     35 C          65.6376   96.0325   10.7894 C.3     1  UNL1        0.1183
     36 C          65.7447   96.0673    9.2936 C.ar    1  UNL1        0.0712
     37 N          64.7297   96.8210    8.4864 N.ar    1  UNL1       -0.2471
     38 C          64.8368   96.8558    6.9906 C.ar    1  UNL1        0.0985
     39 C          65.9589   96.1370    6.3021 C.ar    1  UNL1        0.0203
     40 C          66.9739   95.3832    7.1094 C.ar    1  UNL1       -0.0015
     41 C          66.8668   95.3484    8.6051 C.ar    1  UNL1       -0.0069
     42 C          67.8818   94.5947    9.4124 C.3     1  UNL1        0.0323
@<TRIPOS>UNITY_ATOM_ATTR
27 1
charge -1
@<TRIPOS>BOND
     1    19    20    1
     2    20    21   ar
     3    21    22   ar
     4    22    26    1
     5    26    27   ar
     6    26    28   ar
     7    22    23   ar
     8    23    24   ar
     9    24    25   ar
    10    25    13    1
    11    13    14   ar
    12    14    15   ar
    13    15    16   ar
    14    16     1    1
    15     1     2   am
    16     2     3    2
    17     2     4   am
    18     4    29    1
    19    29    30   ar
    20    30    31   ar
    21    31    32   ar
    22    32    33   ar
    23    33    34   ar
    24     4     5    1
    25     5     6    1
    26     6     7    1
    27     7     8    1
    28     8    35    1
    29    35    36    1
    30    36    37   ar
    31    37    38   ar
    32    38    39   ar
    33    39    40   ar
    34    40    41   ar
    35    41    42    1
    36     8     9    1
    37     9    10    1
    38     5    11    1
    39    11    12    2
    40    16    17   ar
    41    17    18   ar
    42    25    20   ar
    43    18    13   ar
    44    11     1   am
    45    34    29   ar
    46    10     5    1
    47    41    36   ar
@<TRIPOS>MOLECULE
*****
 42 47 0 0 0
SMALL
GASTEIGER

@<TRIPOS>ATOM
      1 N          72.5184   78.8939   11.8718 N.am    1  UNL1       -0.1892
      2 C          72.8302   79.6179   13.1480 C.2     1  UNL1        0.3220
      3 O          73.3368   81.0250   13.2622 O.2     1  UNL1       -0.2512
      4 N          72.5463   78.6876   14.2899 N.am    1  UNL1       -0.2211
      5 C          72.0591   77.3886   13.7195 C.3     1  UNL1        0.1391
      6 C          71.5892   76.1549   13.0073 C.3     1  UNL1        0.0449
      7 C          71.1895   74.9416   13.7934 C.3     1  UNL1        0.0746
      8 N          71.2596   74.9619   15.2916 N.3     1  UNL1       -0.2676
      9 C          71.7295   76.1955   16.0038 C.3     1  UNL1        0.0746
     10 C          72.1292   77.4089   15.2177 C.3     1  UNL1        0.0449
     11 C          72.0418   77.5161   12.2250 C.2     1  UNL1        0.2529
     12 O          71.6218   76.4526   11.2542 O.2     1  UNL1       -0.2724
     13 C          72.9388   80.5622    7.7137 C.ar    1  UNL1        0.0811
     14 C          72.1047   81.2836    8.7305 C.ar    1  UNL1        0.0204
     15 C          71.9645   80.7275   10.1165 C.ar    1  UNL1        0.0185
     16 C          72.6585   79.4500   10.4857 C.ar    1  UNL1        0.0813
     17 C          73.4926   78.7287    9.4690 C.ar    1  UNL1        0.1141
     18 N          73.6328   79.2848    8.0830 N.ar    1  UNL1       -0.2425
     19 C          73.5752   78.7345    5.4214 C.3     1  UNL1        0.0311
     20 C          73.3971   80.2044    5.1816 C.ar    1  UNL1       -0.0204
     21 C          73.5373   80.7605    3.7954 C.ar    1  UNL1       -0.0031
     22 C          73.3593   82.2305    3.5555 C.ar    1  UNL1        0.0137
     23 C          73.0411   83.1444    4.7017 C.ar    1  UNL1        0.0012
     24 C          72.9010   82.5883    6.0878 C.ar    1  UNL1        0.0012
     25 C          73.0790   81.1183    6.3277 C.ar    1  UNL1        0.0137
     26 C          73.4994   82.7866    2.1695 C.2     1  UNL1        0.0729
     27 O          73.5411   84.2710    1.9576 O.co2   1  UNL1       -0.5446
     28 O          73.5979   81.8583    0.9953 O.co2   1  UNL1       -0.5446
     29 C          72.7193   79.0012   15.7465 C.ar    1  UNL1        0.1583
     30 C          73.4601   78.0474   16.6362 C.ar    1  UNL1        0.1335
     31 N          73.6330   78.3611   18.0928 N.ar    1  UNL1       -0.2378
     32 C          73.0651   79.6284   18.6598 C.ar    1  UNL1        0.1196
     33 C          72.3243   80.5821   17.7701 C.ar    1  UNL1        0.1210
     34 N          72.1514   80.2685   16.3135 N.ar    1  UNL1       -0.2255
     35 C          70.8598   73.7484   16.0776 C.3     1  UNL1        0.1183
     36 C          71.2196   72.3801   15.5795 C.ar    1  UNL1        0.0712
     37 N          70.5328   71.8175   14.3705 N.ar    1  UNL1       -0.2471
     38 C          70.8927   70.4491   13.8723 C.ar    1  UNL1        0.0985
     39 C          71.9392   69.6433   14.5833 C.ar    1  UNL1        0.0203
     40 C          72.6260   70.2060   15.7923 C.ar    1  UNL1       -0.0015
     41 C          72.2662   71.5743   16.2905 C.ar    1  UNL1       -0.0069
     42 C          72.9530   72.1369   17.4995 C.3     1  UNL1        0.0323
@<TRIPOS>UNITY_ATOM_ATTR
27 1
charge -1
@<TRIPOS>BOND
     1    19    20    1
     2    20    21   ar
     3    21    22   ar
     4    22    26    1
     5    26    27   ar
     6    26    28   ar
     7    22    23   ar
     8    23    24   ar
     9    24    25   ar
    10    25    13    1
    11    13    14   ar
    12    14    15   ar
    13    15    16   ar
    14    16     1    1
    15     1     2   am
    16     2     3    2
    17     2     4   am
    18     4    29    1
    19    29    30   ar
    20    30    31   ar
    21    31    32   ar
    22    32    33   ar
    23    33    34   ar
    24     4     5    1
    25     5     6    1
    26     6     7    1
    27     7     8    1
    28     8    35    1
    29    35    36    1
    30    36    37   ar
    31    37    38   ar
    32    38    39   ar
    33    39    40   ar
    34    40    41   ar
    35    41    42    1
    36     8     9    1
    37     9    10    1
    38     5    11    1
    39    11    12    2
    40    16    17   ar
    41    17    18   ar
    42    25    20   ar
    43    18    13   ar
    44    11     1   am
    45    34    29   ar
    46    10     5    1
    47    41    36   ar
