@<TRIPOS>MOLECULE
*****
 37 41 0 0 0
SMALL
GASTEIGER

@<TRIPOS>ATOM
      1 O          58.4206   89.6362    6.5879 O.3     1  UNL1       -0.4535
      2 C          60.5401   92.2777    3.6247 C.ar    1  UNL1        0.0536
      3 C          59.0645   92.4318    3.8457 C.ar    1  UNL1        0.0076
      4 C          58.3580   91.5514    4.8334 C.ar    1  UNL1        0.0376
      5 C          59.1270   90.5167    5.6002 C.ar    1  UNL1        0.1453
      6 C          60.6027   90.3625    5.3792 C.ar    1  UNL1        0.0376
      7 C          61.3092   91.2431    4.3914 C.ar    1  UNL1        0.0076
      8 O          60.5147   94.2956    1.9884 O.2     1  UNL1       -0.2701
      9 C          61.2465   93.1583    2.6369 C.2     1  UNL1        0.2458
     10 N          62.6849   92.9013    2.2978 N.am    1  UNL1       -0.3008
     11 H          63.1652   92.1547    2.7235 H       1  UNL1        0.1497
     12 C          63.3915   93.7818    1.3100 C.3     1  UNL1        0.0955
     13 C          64.2435   94.9178    1.7932 C.3     1  UNL1        0.0232
     14 C          64.9500   95.7982    0.8054 C.3     1  UNL1        0.0271
     15 C          64.8044   95.5426   -0.6654 C.3     1  UNL1        0.1509
     16 S          63.9524   94.4066   -1.1486 S.O2    1  UNL1       -0.0084
     17 O          63.2624   93.4625   -2.0880 O.2     1  UNL1       -0.1729
     18 O          64.4193   94.9592   -2.4627 O.2     1  UNL1       -0.1729
     19 C          63.2459   93.5262   -0.1608 C.3     1  UNL1        0.1702
     20 C          59.2132   88.7811    7.5315 C.ar    1  UNL1        0.1453
     21 C          59.1664   87.2869    7.4090 C.ar    1  UNL1        0.0381
     22 C          59.9590   86.4317    8.3527 C.ar    1  UNL1        0.0114
     23 C          60.7985   87.0709    9.4189 C.ar    1  UNL1        0.0419
     24 C          60.8454   88.5651    9.5414 C.ar    1  UNL1        0.0114
     25 C          60.0527   89.4203    8.5977 C.ar    1  UNL1        0.0381
     26 C          61.5911   86.2157   10.3625 C.1     1  UNL1       -0.0621
     27 C          62.3838   85.3606   11.3060 C.1     1  UNL1       -0.0597
     28 C          63.5888   83.7841   13.1844 C.3     1  UNL1        0.1561
     29 O          63.1901   86.0358   12.9224 O.3     1  UNL1       -0.3739
     30 C          63.2673   82.7411   12.3791 C.3     1  UNL1        0.1120
     31 N          63.0940   82.0773   11.9239 N.3     1  UNL1       -0.2699
     32 C          63.8247   81.8336   13.2109 C.3     1  UNL1        0.0723
     33 C          64.1803   82.9870   14.1015 C.3     1  UNL1        0.0207
     34 C          63.8051   84.3842   13.7050 C.3     1  UNL1        0.0404
     35 C          63.0744   84.6279   12.4179 C.3     1  UNL1        0.0207
     36 C          62.7188   83.4745   11.5274 C.3     1  UNL1        0.0723
     37 H          62.7177   86.1856   12.0886 H       1  UNL1        0.2115
@<TRIPOS>BOND
     1     8     9    2
     2     9    10   am
     3    10    12    1
     4    12    13    1
     5    13    14    1
     6    14    15    1
     7    15    16    1
     8    16    17    2
     9    16    18    2
    10    16    19    1
    11     9     2    1
    12     2     3   ar
    13     3     4   ar
    14     4     5   ar
    15     5     1    1
    16     1    20    1
    17    20    21   ar
    18    21    22   ar
    19    22    23   ar
    20    23    26    1
    21    26    27    3
    22    27    28    1
    23    28    29    1
    24    28    30    1
    25    30    31    1
    26    31    32    1
    27    32    33    1
    28    33    34    1
    29    34    35    1
    30    35    36    1
    31    23    24   ar
    32    24    25   ar
    33     5     6   ar
    34     6     7   ar
    35    19    12    1
    36     7     2   ar
    37    25    20   ar
    38    34    28    1
    39    36    31    1
    40    10    11    1
    41    29    37    1
@<TRIPOS>MOLECULE
*****
 37 41 0 0 0
SMALL
GASTEIGER

@<TRIPOS>ATOM
      1 O          58.5062   89.6072    6.8390 O.3     1  UNL1       -0.4535
      2 C          61.0981   86.8243    9.2446 C.ar    1  UNL1        0.0536
      3 C          60.2303   86.2812    8.1483 C.ar    1  UNL1        0.0076
      4 C          59.3664   87.2088    7.3465 C.ar    1  UNL1        0.0376
      5 C          59.3701   88.6796    7.6409 C.ar    1  UNL1        0.1453
      6 C          60.2380   89.2228    8.7372 C.ar    1  UNL1        0.0376
      7 C          61.1020   88.2951    9.5391 C.ar    1  UNL1        0.0076
      8 O          63.0292   85.0906    9.3673 O.2     1  UNL1       -0.2701
      9 C          61.9621   85.8966   10.0465 C.2     1  UNL1        0.2458
     10 N          61.7589   85.7751   11.5277 N.am    1  UNL1       -0.3008
     11 H          61.0585   86.3042   11.9735 H       1  UNL1        0.1497
     12 C          62.6229   84.8474   12.3296 C.3     1  UNL1        0.0955
     13 C          63.5579   85.3999   13.3643 C.3     1  UNL1        0.0232
     14 C          64.4218   84.4721   14.1662 C.3     1  UNL1        0.0271
     15 C          64.3506   82.9920   13.9334 C.3     1  UNL1        0.1509
     16 S          63.4157   82.4395   12.8987 S.O2    1  UNL1       -0.0084
     17 O          62.6936   81.4450   12.0388 O.2     1  UNL1       -0.1729
     18 O          64.0288   81.1664   13.4020 O.2     1  UNL1       -0.1729
     19 C          62.5517   83.3673   12.0968 C.3     1  UNL1        0.1702
     20 C          59.1172   90.4677    5.7731 C.ar    1  UNL1        0.1453
     21 C          60.5864   90.3754    5.4853 C.ar    1  UNL1        0.0381
     22 C          61.1975   91.2358    4.4194 C.ar    1  UNL1        0.0114
     23 C          60.3393   92.1888    3.6412 C.ar    1  UNL1        0.0419
     24 C          58.8701   92.2811    3.9290 C.ar    1  UNL1        0.0114
     25 C          58.2590   91.4206    4.9949 C.ar    1  UNL1        0.0381
     26 C          60.9504   93.0492    2.5754 C.1     1  UNL1       -0.0621
     27 C          61.5613   93.9097    1.5095 C.1     1  UNL1       -0.0597
     28 C          62.9252   95.3506   -0.3692 C.3     1  UNL1        0.1561
     29 O          60.7216   95.1013    0.2470 O.3     1  UNL1       -0.3739
     30 C          64.0437   94.7738    0.1366 C.3     1  UNL1        0.1120
     31 N          64.7496   94.4495    0.4096 N.3     1  UNL1       -0.2699
     32 C          64.8552   95.4169   -0.7318 C.3     1  UNL1        0.0723
     33 C          63.6183   96.0548   -1.2912 C.3     1  UNL1        0.0207
     34 C          62.2757   95.7253   -0.7091 C.3     1  UNL1        0.0404
     35 C          62.1700   94.7579    0.4323 C.3     1  UNL1        0.0207
     36 C          63.4070   94.1200    0.9917 C.3     1  UNL1        0.0723
     37 H          60.6611   94.4747    0.9851 H       1  UNL1        0.2115
@<TRIPOS>BOND
     1     8     9    2
     2     9    10   am
     3    10    12    1
     4    12    13    1
     5    13    14    1
     6    14    15    1
     7    15    16    1
     8    16    17    2
     9    16    18    2
    10    16    19    1
    11     9     2    1
    12     2     3   ar
    13     3     4   ar
    14     4     5   ar
    15     5     1    1
    16     1    20    1
    17    20    21   ar
    18    21    22   ar
    19    22    23   ar
    20    23    26    1
    21    26    27    3
    22    27    28    1
    23    28    29    1
    24    28    30    1
    25    30    31    1
    26    31    32    1
    27    32    33    1
    28    33    34    1
    29    34    35    1
    30    35    36    1
    31    23    24   ar
    32    24    25   ar
    33     5     6   ar
    34     6     7   ar
    35    19    12    1
    36     7     2   ar
    37    25    20   ar
    38    34    28    1
    39    36    31    1
    40    10    11    1
    41    29    37    1
