@<TRIPOS>MOLECULE
*****
 38 41 0 0 0
SMALL
GASTEIGER

@<TRIPOS>ATOM
      1 C          63.4968   94.0256   -1.0903 C.ar    1  UNL1        0.0537
      2 C          62.0908   93.5271   -1.2477 C.ar    1  UNL1        0.0042
      3 C          61.3427   93.0043   -0.0573 C.ar    1  UNL1       -0.0041
      4 C          62.0007   92.9799    1.2905 C.ar    1  UNL1       -0.0224
      5 C          63.4066   93.4784    1.4478 C.ar    1  UNL1       -0.0041
      6 C          64.1547   94.0012    0.2575 C.ar    1  UNL1        0.0042
      7 C          61.2526   92.4571    2.4809 C.3     1  UNL1        0.0251
      8 C          59.8180   92.8405    2.6929 C.3     1  UNL1        0.0217
      9 C          59.0700   92.3177    3.8832 C.3     1  UNL1        0.0724
     10 N          59.7565   91.4115    4.8617 N.3     1  UNL1       -0.2722
     11 C          61.1911   91.0281    4.6498 C.3     1  UNL1        0.0724
     12 C          61.9392   91.5509    3.4594 C.3     1  UNL1        0.0217
     13 C          59.0084   90.8887    6.0522 C.3     1  UNL1        0.0817
     14 C          58.9725   89.4145    6.3271 C.3     1  UNL1        0.1026
     15 C          59.7701   88.8436    7.4619 C.2     1  UNL1        0.2276
     16 O          60.4385   89.7592    8.4442 O.2     1  UNL1       -0.2747
     17 N          59.8995   87.3570    7.6143 N.am    1  UNL1       -0.2821
     18 H          59.4608   86.7560    6.9696 H       1  UNL1        0.1549
     19 C          60.6972   86.7860    8.7491 C.ar    1  UNL1        0.0781
     20 C          60.3967   87.1989   10.1595 C.ar    1  UNL1        0.0170
     21 C          61.1944   86.6280   11.2943 C.ar    1  UNL1        0.0014
     22 C          62.2926   85.6442   11.0187 C.ar    1  UNL1        0.0024
     23 C          62.5931   85.2313    9.6083 C.ar    1  UNL1        0.0309
     24 C          61.7954   85.8022    8.4735 C.ar    1  UNL1        0.1535
     25 F          62.0960   85.3893    7.0631 F       1  UNL1       -0.2029
     26 N          64.0697   93.8985   -3.6212 N.am    1  UNL1       -0.2794
     27 C          64.2448   94.5484   -2.2808 C.2     1  UNL1        0.2495
     28 O          65.1679   95.7212   -2.1307 O.2     1  UNL1       -0.2698
     29 H          63.4639   93.1288   -3.7197 H       1  UNL1        0.1552
     30 N          65.5810   92.0068   -5.3926 N.pl3   1  UNL1       -0.3560
     31 C          65.5734   93.4755   -5.6974 C.ar    1  UNL1        0.0552
     32 C          66.3214   93.9983   -6.8877 C.ar    1  UNL1        0.0153
     33 C          66.3138   95.4670   -7.1925 C.ar    1  UNL1        0.0013
     34 C          65.5582   96.4129   -6.3068 C.ar    1  UNL1        0.0014
     35 C          64.8102   95.8900   -5.1164 C.ar    1  UNL1        0.0159
     36 C          64.8178   94.4213   -4.8117 C.ar    1  UNL1        0.0636
     37 H          66.0769   91.3860   -5.9739 H       1  UNL1        0.1424
     38 H          65.0900   91.6636   -4.6113 H       1  UNL1        0.1424
@<TRIPOS>BOND
     1    30    31    1
     2    31    32   ar
     3    32    33   ar
     4    33    34   ar
     5    34    35   ar
     6    35    36   ar
     7    36    26    1
     8    26    27   am
     9    27    28    2
    10    27     1    1
    11     1     2   ar
    12     2     3   ar
    13     3     4   ar
    14     4     7    1
    15     7     8    1
    16     8     9    1
    17     9    10    1
    18    10    13    1
    19    13    14    1
    20    14    15    1
    21    15    16    2
    22    15    17   am
    23    17    19    1
    24    19    20   ar
    25    20    21   ar
    26    21    22   ar
    27    22    23   ar
    28    23    24   ar
    29    24    25    1
    30    10    11    1
    31    11    12    1
    32     4     5   ar
    33     5     6   ar
    34    36    31   ar
    35     6     1   ar
    36    12     7    1
    37    24    19   ar
    38    30    37    1
    39    30    38    1
    40    26    29    1
    41    17    18    1
@<TRIPOS>MOLECULE
*****
 38 41 0 0 0
SMALL
GASTEIGER

@<TRIPOS>ATOM
      1 C          63.4850   94.0659   -1.3093 C.ar    1  UNL1        0.0537
      2 C          64.1131   94.1849    0.0477 C.ar    1  UNL1        0.0042
      3 C          63.3823   93.6858    1.2588 C.ar    1  UNL1       -0.0041
      4 C          62.0234   93.0677    1.1129 C.ar    1  UNL1       -0.0224
      5 C          61.3954   92.9487   -0.2441 C.ar    1  UNL1       -0.0041
      6 C          62.1262   93.4478   -1.4552 C.ar    1  UNL1        0.0042
      7 C          61.2925   92.5685    2.3240 C.3     1  UNL1        0.0251
      8 C          62.0079   91.7241    3.3365 C.3     1  UNL1        0.0217
      9 C          61.2771   91.2250    4.5476 C.3     1  UNL1        0.0724
     10 N          59.8309   91.5702    4.7461 N.3     1  UNL1       -0.2722
     11 C          59.1156   92.4146    3.7335 C.3     1  UNL1        0.0724
     12 C          59.8464   92.9137    2.5224 C.3     1  UNL1        0.0217
     13 C          59.1000   91.0710    5.9572 C.3     1  UNL1        0.0817
     14 C          58.7695   89.6136    6.0859 C.3     1  UNL1        0.1026
     15 C          59.3806   88.8004    7.1883 C.2     1  UNL1        0.2276
     16 O          59.0024   87.3584    7.3548 O.2     1  UNL1       -0.2747
     17 N          60.3700   89.4292    8.1242 N.am    1  UNL1       -0.2821
     18 H          60.6182   90.3756    8.0149 H       1  UNL1        0.1549
     19 C          60.9811   88.6160    9.2266 C.ar    1  UNL1        0.0781
     20 C          60.6612   87.1554    9.3470 C.ar    1  UNL1        0.0170
     21 C          61.2723   86.3422   10.4493 C.ar    1  UNL1        0.0014
     22 C          62.2032   86.9895   11.4313 C.ar    1  UNL1        0.0024
     23 C          62.5231   88.4501   11.3109 C.ar    1  UNL1        0.0309
     24 C          61.9120   89.2633   10.2085 C.ar    1  UNL1        0.1535
     25 F          62.2319   90.7239   10.0881 F       1  UNL1       -0.2029
     26 N          63.9985   93.9082   -3.8512 N.am    1  UNL1       -0.2794
     27 C          64.2159   94.5651   -2.5204 C.2     1  UNL1        0.2495
     28 O          65.1642   95.7212   -2.4006 O.2     1  UNL1       -0.2698
     29 H          63.3762   93.1495   -3.9299 H       1  UNL1        0.1552
     30 N          65.6542   92.0173   -5.4894 N.pl3   1  UNL1       -0.3560
     31 C          65.5572   93.4620   -5.8814 C.ar    1  UNL1        0.0552
     32 C          66.2880   93.9612   -7.0924 C.ar    1  UNL1        0.0153
     33 C          66.1911   95.4058   -7.4844 C.ar    1  UNL1        0.0013
     34 C          65.3633   96.3512   -6.6654 C.ar    1  UNL1        0.0014
     35 C          64.6325   95.8520   -5.4544 C.ar    1  UNL1        0.0159
     36 C          64.7294   94.4074   -5.0624 C.ar    1  UNL1        0.0636
     37 H          66.1975   91.3968   -6.0270 H       1  UNL1        0.1424
     38 H          65.1745   91.6897   -4.6945 H       1  UNL1        0.1424
@<TRIPOS>BOND
     1    30    31    1
     2    31    32   ar
     3    32    33   ar
     4    33    34   ar
     5    34    35   ar
     6    35    36   ar
     7    36    26    1
     8    26    27   am
     9    27    28    2
    10    27     1    1
    11     1     2   ar
    12     2     3   ar
    13     3     4   ar
    14     4     7    1
    15     7     8    1
    16     8     9    1
    17     9    10    1
    18    10    13    1
    19    13    14    1
    20    14    15    1
    21    15    16    2
    22    15    17   am
    23    17    19    1
    24    19    20   ar
    25    20    21   ar
    26    21    22   ar
    27    22    23   ar
    28    23    24   ar
    29    24    25    1
    30    10    11    1
    31    11    12    1
    32     4     5   ar
    33     5     6   ar
    34    36    31   ar
    35     6     1   ar
    36    12     7    1
    37    24    19   ar
    38    30    37    1
    39    30    38    1
    40    26    29    1
    41    17    18    1
@<TRIPOS>MOLECULE
*****
 38 41 0 0 0
SMALL
GASTEIGER

@<TRIPOS>ATOM
      1 C          59.6015   92.2291    3.4840 C.ar    1  UNL1        0.0537
      2 C          58.3634   91.8907    4.2602 C.ar    1  UNL1        0.0042
      3 C          58.4527   90.9998    5.4637 C.ar    1  UNL1       -0.0041
      4 C          59.7802   90.4474    5.8909 C.ar    1  UNL1       -0.0224
      5 C          61.0183   90.7858    5.1146 C.ar    1  UNL1       -0.0041
      6 C          60.9290   91.6766    3.9112 C.ar    1  UNL1        0.0042
      7 C          59.8696   89.5564    7.0944 C.3     1  UNL1        0.0251
      8 C          60.4346   90.0859    8.3791 C.3     1  UNL1        0.0217
      9 C          60.5241   89.1951    9.5826 C.3     1  UNL1        0.0724
     10 N          60.0485   87.7748    9.5013 N.3     1  UNL1       -0.2722
     11 C          59.4835   87.2454    8.2166 C.3     1  UNL1        0.0724
     12 C          59.3941   88.1362    7.0132 C.3     1  UNL1        0.0217
     13 C          60.1379   86.8839   10.7048 C.3     1  UNL1        0.0817
     14 C          61.4645   86.3261   11.1281 C.3     1  UNL1        0.1026
     15 C          62.4324   87.1860   11.8855 C.2     1  UNL1        0.2276
     16 O          63.4869   86.5517   12.7433 O.2     1  UNL1       -0.2747
     17 N          62.3460   88.6801   11.7850 N.am    1  UNL1       -0.2821
     18 H          61.6540   89.0964   11.2220 H       1  UNL1        0.1549
     19 C          63.3141   89.5400   12.5424 C.ar    1  UNL1        0.0781
     20 C          63.8269   89.0933   13.8794 C.ar    1  UNL1        0.0170
     21 C          64.7949   89.9531   14.6367 C.ar    1  UNL1        0.0014
     22 C          65.2501   91.2595   14.0572 C.ar    1  UNL1        0.0024
     23 C          64.7372   91.7062   12.7202 C.ar    1  UNL1        0.0309
     24 C          63.7692   90.8464   11.9628 C.ar    1  UNL1        0.1535
     25 F          63.2564   91.2931   10.6259 F       1  UNL1       -0.2029
     26 N          59.1263   92.5460    0.9494 N.am    1  UNL1       -0.2794
     27 C          59.5121   93.1200    2.2805 C.2     1  UNL1        0.2495
     28 O          59.8085   94.5849    2.4081 O.2     1  UNL1       -0.2698
     29 H          58.9318   91.5845    0.8657 H       1  UNL1        0.1552
     30 N          61.5556   93.0287   -0.7434 N.pl3   1  UNL1       -0.3560
     31 C          60.2515   93.6782   -1.1005 C.ar    1  UNL1        0.0552
     32 C          60.1620   94.5691   -2.3039 C.ar    1  UNL1        0.0153
     33 C          58.8580   95.2186   -2.6609 C.ar    1  UNL1        0.0013
     34 C          57.6434   94.9773   -1.8146 C.ar    1  UNL1        0.0014
     35 C          57.7328   94.0864   -0.6111 C.ar    1  UNL1        0.0159
     36 C          59.0369   93.4369   -0.2541 C.ar    1  UNL1        0.0636
     37 H          62.3528   93.1871   -1.2990 H       1  UNL1        0.1424
     38 H          61.6143   92.4439    0.0464 H       1  UNL1        0.1424
@<TRIPOS>BOND
     1    30    31    1
     2    31    32   ar
     3    32    33   ar
     4    33    34   ar
     5    34    35   ar
     6    35    36   ar
     7    36    26    1
     8    26    27   am
     9    27    28    2
    10    27     1    1
    11     1     2   ar
    12     2     3   ar
    13     3     4   ar
    14     4     7    1
    15     7     8    1
    16     8     9    1
    17     9    10    1
    18    10    13    1
    19    13    14    1
    20    14    15    1
    21    15    16    2
    22    15    17   am
    23    17    19    1
    24    19    20   ar
    25    20    21   ar
    26    21    22   ar
    27    22    23   ar
    28    23    24   ar
    29    24    25    1
    30    10    11    1
    31    11    12    1
    32     4     5   ar
    33     5     6   ar
    34    36    31   ar
    35     6     1   ar
    36    12     7    1
    37    24    19   ar
    38    30    37    1
    39    30    38    1
    40    26    29    1
    41    17    18    1
@<TRIPOS>MOLECULE
*****
 38 41 0 0 0
SMALL
GASTEIGER

@<TRIPOS>ATOM
      1 C          59.5963   92.2520    3.4715 C.ar    1  UNL1        0.0537
      2 C          60.9324   91.7041    3.8771 C.ar    1  UNL1        0.0042
      3 C          61.0486   90.8354    5.0944 C.ar    1  UNL1       -0.0041
      4 C          59.8287   90.5147    5.9061 C.ar    1  UNL1       -0.0224
      5 C          58.4925   91.0626    5.5004 C.ar    1  UNL1       -0.0041
      6 C          58.3764   91.9313    4.2831 C.ar    1  UNL1        0.0042
      7 C          59.9448   89.6460    7.1235 C.3     1  UNL1        0.0251
      8 C          59.3882   88.2532    7.1068 C.3     1  UNL1        0.0217
      9 C          59.5043   87.3845    8.3241 C.3     1  UNL1        0.0724
     10 N          60.1770   87.9086    9.5581 N.3     1  UNL1       -0.2722
     11 C          60.7335   89.3015    9.5748 C.3     1  UNL1        0.0724
     12 C          60.6174   90.1702    8.3575 C.3     1  UNL1        0.0217
     13 C          60.2931   87.0399   10.7755 C.3     1  UNL1        0.0817
     14 C          61.6433   86.7367   11.3544 C.3     1  UNL1        0.1026
     15 C          62.0513   85.3146   11.6011 C.2     1  UNL1        0.2276
     16 O          62.2390   84.3768   10.4455 O.2     1  UNL1       -0.2747
     17 N          62.2717   84.8301   13.0035 N.am    1  UNL1       -0.2821
     18 H          62.1486   85.4455   13.7620 H       1  UNL1        0.1549
     19 C          62.6798   83.4078   13.2502 C.ar    1  UNL1        0.0781
     20 C          61.7573   82.4792   13.9828 C.ar    1  UNL1        0.0170
     21 C          62.1653   81.0570   14.2295 C.ar    1  UNL1        0.0014
     22 C          63.4958   80.5635   13.7436 C.ar    1  UNL1        0.0024
     23 C          64.4183   81.4921   13.0111 C.ar    1  UNL1        0.0309
     24 C          64.0103   82.9143   12.7644 C.ar    1  UNL1        0.1535
     25 F          64.9328   83.8429   12.0318 F       1  UNL1       -0.2029
     26 N          59.0480   92.5258    0.9467 N.am    1  UNL1       -0.2794
     27 C          59.4802   93.1207    2.2541 C.2     1  UNL1        0.2495
     28 O          59.7963   94.5842    2.3441 O.2     1  UNL1       -0.2698
     29 H          58.8405   91.5653    0.8876 H       1  UNL1        0.1552
     30 N          61.5197   93.6035   -0.3684 N.pl3   1  UNL1       -0.3560
     31 C          60.1677   93.9334   -0.9282 C.ar    1  UNL1        0.0552
     32 C          60.0515   94.8020   -2.1456 C.ar    1  UNL1        0.0153
     33 C          58.6995   95.1318   -2.7053 C.ar    1  UNL1        0.0013
     34 C          57.4637   94.5930   -2.0478 C.ar    1  UNL1        0.0014
     35 C          57.5799   93.7244   -0.8305 C.ar    1  UNL1        0.0159
     36 C          58.9319   93.3945   -0.2707 C.ar    1  UNL1        0.0636
     37 H          62.3308   93.9572   -0.8000 H       1  UNL1        0.1424
     38 H          61.5959   93.0334    0.4305 H       1  UNL1        0.1424
@<TRIPOS>BOND
     1    30    31    1
     2    31    32   ar
     3    32    33   ar
     4    33    34   ar
     5    34    35   ar
     6    35    36   ar
     7    36    26    1
     8    26    27   am
     9    27    28    2
    10    27     1    1
    11     1     2   ar
    12     2     3   ar
    13     3     4   ar
    14     4     7    1
    15     7     8    1
    16     8     9    1
    17     9    10    1
    18    10    13    1
    19    13    14    1
    20    14    15    1
    21    15    16    2
    22    15    17   am
    23    17    19    1
    24    19    20   ar
    25    20    21   ar
    26    21    22   ar
    27    22    23   ar
    28    23    24   ar
    29    24    25    1
    30    10    11    1
    31    11    12    1
    32     4     5   ar
    33     5     6   ar
    34    36    31   ar
    35     6     1   ar
    36    12     7    1
    37    24    19   ar
    38    30    37    1
    39    30    38    1
    40    26    29    1
    41    17    18    1
@<TRIPOS>MOLECULE
*****
 38 41 0 0 0
SMALL
GASTEIGER

@<TRIPOS>ATOM
      1 C          60.9754   87.1056    9.8108 C.ar    1  UNL1        0.0537
      2 C          61.2214   88.5804    9.9313 C.ar    1  UNL1        0.0042
      3 C          60.8236   89.5007    8.8156 C.ar    1  UNL1       -0.0041
      4 C          60.1798   88.9463    7.5795 C.ar    1  UNL1       -0.0224
      5 C          59.9338   87.4715    7.4590 C.ar    1  UNL1       -0.0041
      6 C          60.3315   86.5512    8.5747 C.ar    1  UNL1        0.0042
      7 C          59.7820   89.8666    6.4637 C.3     1  UNL1        0.0251
      8 C          58.3336   90.1774    6.2282 C.3     1  UNL1        0.0217
      9 C          57.9357   91.0977    5.1126 C.3     1  UNL1        0.0724
     10 N          58.9863   91.7072    4.2324 N.3     1  UNL1       -0.2722
     11 C          60.4347   91.3964    4.4679 C.3     1  UNL1        0.0724
     12 C          60.8326   90.4762    5.5836 C.3     1  UNL1        0.0217
     13 C          58.5885   92.6276    3.1167 C.3     1  UNL1        0.0817
     14 C          59.5843   92.9959    2.0571 C.3     1  UNL1        0.1026
     15 C          59.1144   93.3576    0.6794 C.2     1  UNL1        0.2276
     16 O          59.1000   94.7932    0.2446 O.2     1  UNL1       -0.2747
     17 N          58.6587   92.2838   -0.2637 N.am    1  UNL1       -0.2821
     18 H          58.6682   91.3416    0.0216 H       1  UNL1        0.1549
     19 C          58.1887   92.6456   -1.6415 C.ar    1  UNL1        0.0781
     20 C          56.7330   92.5432   -1.9883 C.ar    1  UNL1        0.0170
     21 C          56.2629   92.9050   -3.3660 C.ar    1  UNL1        0.0014
     22 C          57.2487   93.3691   -4.3969 C.ar    1  UNL1        0.0024
     23 C          58.7044   93.4715   -4.0501 C.ar    1  UNL1        0.0309
     24 C          59.1745   93.1098   -2.6724 C.ar    1  UNL1        0.1535
     25 F          60.6302   93.2121   -2.3256 F       1  UNL1       -0.2029
     26 N          62.3701   85.0925   10.6780 N.am    1  UNL1       -0.2794
     27 C          61.3732   86.1853   10.9265 C.2     1  UNL1        0.2495
     28 O          60.7740   86.3578   12.2908 O.2     1  UNL1       -0.2698
     29 H          62.7633   84.9792    9.7825 H       1  UNL1        0.1552
     30 N          63.4767   86.2185   13.2290 N.pl3   1  UNL1       -0.3560
     31 C          63.3212   84.7351   13.0692 C.ar    1  UNL1        0.0552
     32 C          63.7190   83.8148   14.1848 C.ar    1  UNL1        0.0153
     33 C          63.5635   82.3315   14.0250 C.ar    1  UNL1        0.0013
     34 C          63.0102   81.7685   12.7495 C.ar    1  UNL1        0.0014
     35 C          62.6124   82.6888   11.6339 C.ar    1  UNL1        0.0159
     36 C          62.7679   84.1721   11.7937 C.ar    1  UNL1        0.0636
     37 H          63.8399   86.5880   14.0661 H       1  UNL1        0.1424
     38 H          63.2157   86.8225   12.4967 H       1  UNL1        0.1424
@<TRIPOS>BOND
     1    30    31    1
     2    31    32   ar
     3    32    33   ar
     4    33    34   ar
     5    34    35   ar
     6    35    36   ar
     7    36    26    1
     8    26    27   am
     9    27    28    2
    10    27     1    1
    11     1     2   ar
    12     2     3   ar
    13     3     4   ar
    14     4     7    1
    15     7     8    1
    16     8     9    1
    17     9    10    1
    18    10    13    1
    19    13    14    1
    20    14    15    1
    21    15    16    2
    22    15    17   am
    23    17    19    1
    24    19    20   ar
    25    20    21   ar
    26    21    22   ar
    27    22    23   ar
    28    23    24   ar
    29    24    25    1
    30    10    11    1
    31    11    12    1
    32     4     5   ar
    33     5     6   ar
    34    36    31   ar
    35     6     1   ar
    36    12     7    1
    37    24    19   ar
    38    30    37    1
    39    30    38    1
    40    26    29    1
    41    17    18    1
@<TRIPOS>MOLECULE
*****
 38 41 0 0 0
SMALL
GASTEIGER

@<TRIPOS>ATOM
      1 C          63.0797   84.5127   13.5432 C.ar    1  UNL1        0.0537
      2 C          63.0432   85.6546   12.5712 C.ar    1  UNL1        0.0042
      3 C          63.3962   87.0393   13.0273 C.ar    1  UNL1       -0.0041
      4 C          63.7856   87.2820   14.4554 C.ar    1  UNL1       -0.0224
      5 C          63.8221   86.1401   15.4273 C.ar    1  UNL1       -0.0041
      6 C          63.4691   84.7554   14.9712 C.ar    1  UNL1        0.0042
      7 C          64.1386   88.6667   14.9116 C.3     1  UNL1        0.0251
      8 C          65.2198   89.4345   14.2105 C.3     1  UNL1        0.0217
      9 C          65.5729   90.8191   14.6667 C.3     1  UNL1        0.0724
     10 N          64.8446   91.4360   15.8238 N.3     1  UNL1       -0.2722
     11 C          63.7634   90.6682   16.5249 C.3     1  UNL1        0.0724
     12 C          63.4104   89.2836   16.0687 C.3     1  UNL1        0.0217
     13 C          65.1976   92.8207   16.2800 C.3     1  UNL1        0.0817
     14 C          66.5463   93.3945   15.9609 C.3     1  UNL1        0.1026
     15 C          67.0418   93.4030   14.5451 C.2     1  UNL1        0.2276
     16 O          68.4807   93.0964   14.2522 O.2     1  UNL1       -0.2747
     17 N          66.0985   93.7182   13.4222 N.am    1  UNL1       -0.2821
     18 H          65.1542   93.9194   13.6144 H       1  UNL1        0.1549
     19 C          66.5941   93.7267   12.0065 C.ar    1  UNL1        0.0781
     20 C          67.1318   92.4682   11.3925 C.ar    1  UNL1        0.0170
     21 C          67.6274   92.4767    9.9768 C.ar    1  UNL1        0.0014
     22 C          67.5853   93.7437    9.1750 C.ar    1  UNL1        0.0024
     23 C          67.0476   95.0022    9.7890 C.ar    1  UNL1        0.0309
     24 C          66.5520   94.9937   11.2047 C.ar    1  UNL1        0.1535
     25 F          66.0143   96.2523   11.8187 F       1  UNL1       -0.2029
     26 N          63.5382   82.4614   12.0160 N.am    1  UNL1       -0.2794
     27 C          62.7267   83.1279   13.0870 C.2     1  UNL1        0.2495
     28 O          61.5621   82.4098   13.7019 O.2     1  UNL1       -0.2698
     29 H          64.3026   82.9328   11.6124 H       1  UNL1        0.1552
     30 N          63.0614   80.2932   14.0338 N.pl3   1  UNL1       -0.3560
     31 C          62.9468   79.9927   12.5687 C.ar    1  UNL1        0.0552
     32 C          62.5939   78.6080   12.1125 C.ar    1  UNL1        0.0153
     33 C          62.4793   78.3075   10.6474 C.ar    1  UNL1        0.0013
     34 C          62.7177   79.3915    9.6385 C.ar    1  UNL1        0.0014
     35 C          63.0707   80.7761   10.0947 C.ar    1  UNL1        0.0159
     36 C          63.1853   81.0767   11.5598 C.ar    1  UNL1        0.0636
     37 H          62.9049   79.5817   14.6960 H       1  UNL1        0.1424
     38 H          63.2930   81.2020   14.3332 H       1  UNL1        0.1424
@<TRIPOS>BOND
     1    30    31    1
     2    31    32   ar
     3    32    33   ar
     4    33    34   ar
     5    34    35   ar
     6    35    36   ar
     7    36    26    1
     8    26    27   am
     9    27    28    2
    10    27     1    1
    11     1     2   ar
    12     2     3   ar
    13     3     4   ar
    14     4     7    1
    15     7     8    1
    16     8     9    1
    17     9    10    1
    18    10    13    1
    19    13    14    1
    20    14    15    1
    21    15    16    2
    22    15    17   am
    23    17    19    1
    24    19    20   ar
    25    20    21   ar
    26    21    22   ar
    27    22    23   ar
    28    23    24   ar
    29    24    25    1
    30    10    11    1
    31    11    12    1
    32     4     5   ar
    33     5     6   ar
    34    36    31   ar
    35     6     1   ar
    36    12     7    1
    37    24    19   ar
    38    30    37    1
    39    30    38    1
    40    26    29    1
    41    17    18    1
@<TRIPOS>MOLECULE
*****
 38 41 0 0 0
SMALL
GASTEIGER

@<TRIPOS>ATOM
      1 C          59.7028   90.4850    5.7546 C.ar    1  UNL1        0.0537
      2 C          60.9876   90.8397    5.0665 C.ar    1  UNL1        0.0042
      3 C          60.9819   91.8047    3.9182 C.ar    1  UNL1       -0.0041
      4 C          59.6913   92.4150    3.4579 C.ar    1  UNL1       -0.0224
      5 C          58.4065   92.0604    4.1460 C.ar    1  UNL1       -0.0041
      6 C          58.4122   91.0954    5.2944 C.ar    1  UNL1        0.0042
      7 C          59.6855   93.3801    2.3096 C.3     1  UNL1        0.0251
      8 C          60.3451   94.7197    2.4523 C.3     1  UNL1        0.0217
      9 C          60.3394   95.6847    1.3040 C.3     1  UNL1        0.0724
     10 N          59.6739   95.3101    0.0130 N.3     1  UNL1       -0.2722
     11 C          59.0143   93.9706   -0.1298 C.3     1  UNL1        0.0724
     12 C          59.0201   93.0055    1.0185 C.3     1  UNL1        0.0217
     13 C          59.6681   96.2752   -1.1354 C.3     1  UNL1        0.0817
     14 C          59.2975   95.8029   -2.5101 C.3     1  UNL1        0.1026
     15 C          60.1968   94.8534   -3.2447 C.2     1  UNL1        0.2276
     16 O          59.6686   93.5292   -3.7111 O.2     1  UNL1       -0.2747
     17 N          61.6243   95.2280   -3.5129 N.am    1  UNL1       -0.2821
     18 H          61.9710   96.0971   -3.2068 H       1  UNL1        0.1549
     19 C          62.5235   94.2784   -4.2475 C.ar    1  UNL1        0.0781
     20 C          62.5516   94.2806   -5.7473 C.ar    1  UNL1        0.0170
     21 C          63.4508   93.3310   -6.4819 C.ar    1  UNL1        0.0014
     22 C          64.3219   92.3793   -5.7168 C.ar    1  UNL1        0.0024
     23 C          64.2938   92.3772   -4.2171 C.ar    1  UNL1        0.0309
     24 C          63.3946   93.3267   -3.4824 C.ar    1  UNL1        0.1535
     25 F          63.3665   93.3245   -1.9827 F       1  UNL1       -0.2029
     26 N          60.7619   89.6251    7.9657 N.am    1  UNL1       -0.2794
     27 C          59.7086   89.5200    6.9030 C.2     1  UNL1        0.2495
     28 O          58.6610   88.4498    6.9886 O.2     1  UNL1       -0.2698
     29 H          61.4495   90.3275    7.9095 H       1  UNL1        0.1552
     30 N          59.7647   90.4923   10.6589 N.pl3   1  UNL1       -0.3560
     31 C          60.2691   89.0937   10.4606 C.ar    1  UNL1        0.0552
     32 C          60.2750   88.1286   11.6089 C.ar    1  UNL1        0.0153
     33 C          60.7794   86.7300   11.4106 C.ar    1  UNL1        0.0013
     34 C          61.2780   86.2964   10.0641 C.ar    1  UNL1        0.0014
     35 C          61.2722   87.2614    8.9158 C.ar    1  UNL1        0.0159
     36 C          60.7678   88.6600    9.1141 C.ar    1  UNL1        0.0636
     37 H          59.4374   90.7769   11.5427 H       1  UNL1        0.1424
     38 H          59.7609   91.1257    9.9052 H       1  UNL1        0.1424
@<TRIPOS>BOND
     1    30    31    1
     2    31    32   ar
     3    32    33   ar
     4    33    34   ar
     5    34    35   ar
     6    35    36   ar
     7    36    26    1
     8    26    27   am
     9    27    28    2
    10    27     1    1
    11     1     2   ar
    12     2     3   ar
    13     3     4   ar
    14     4     7    1
    15     7     8    1
    16     8     9    1
    17     9    10    1
    18    10    13    1
    19    13    14    1
    20    14    15    1
    21    15    16    2
    22    15    17   am
    23    17    19    1
    24    19    20   ar
    25    20    21   ar
    26    21    22   ar
    27    22    23   ar
    28    23    24   ar
    29    24    25    1
    30    10    11    1
    31    11    12    1
    32     4     5   ar
    33     5     6   ar
    34    36    31   ar
    35     6     1   ar
    36    12     7    1
    37    24    19   ar
    38    30    37    1
    39    30    38    1
    40    26    29    1
    41    17    18    1
@<TRIPOS>MOLECULE
*****
 38 41 0 0 0
SMALL
GASTEIGER

@<TRIPOS>ATOM
      1 C          60.9599   87.0837    9.8091 C.ar    1  UNL1        0.0537
      2 C          60.2808   86.5429    8.5858 C.ar    1  UNL1        0.0042
      3 C          59.8728   87.4726    7.4817 C.ar    1  UNL1       -0.0041
      4 C          60.1440   88.9430    7.6008 C.ar    1  UNL1       -0.0224
      5 C          60.8231   89.4838    8.8240 C.ar    1  UNL1       -0.0041
      6 C          61.2311   88.5541    9.9282 C.ar    1  UNL1        0.0042
      7 C          59.7360   89.8728    6.4966 C.3     1  UNL1        0.0251
      8 C          60.7804   90.5128    5.6308 C.3     1  UNL1        0.0217
      9 C          60.3725   91.4425    4.5266 C.3     1  UNL1        0.0724
     10 N          58.9202   91.7322    4.2883 N.3     1  UNL1       -0.2722
     11 C          57.8758   91.0922    5.1541 C.3     1  UNL1        0.0724
     12 C          58.2837   90.1625    6.2583 C.3     1  UNL1        0.0217
     13 C          58.5122   92.6620    3.1841 C.3     1  UNL1        0.0817
     14 C          59.1790   92.5724    1.8435 C.3     1  UNL1        0.1026
     15 C          60.4417   93.3384    1.5812 C.2     1  UNL1        0.2276
     16 O          60.6351   94.6963    2.1885 O.2     1  UNL1       -0.2747
     17 N          61.5110   92.7465    0.7116 N.am    1  UNL1       -0.2821
     18 H          61.3841   91.8553    0.3130 H       1  UNL1        0.1549
     19 C          62.7738   93.5125    0.4494 C.ar    1  UNL1        0.0781
     20 C          62.7959   94.5862   -0.5979 C.ar    1  UNL1        0.0170
     21 C          64.0586   95.3522   -0.8601 C.ar    1  UNL1        0.0014
     22 C          65.2992   95.0445   -0.0752 C.ar    1  UNL1        0.0024
     23 C          65.2771   93.9708    0.9720 C.ar    1  UNL1        0.0309
     24 C          64.0144   93.2048    1.2343 C.ar    1  UNL1        0.1535
     25 F          63.9923   92.1311    2.2815 F       1  UNL1       -0.2029
     26 N          62.3614   85.0623   10.6459 N.am    1  UNL1       -0.2794
     27 C          61.3679   86.1539   10.9133 C.2     1  UNL1        0.2495
     28 O          60.7824   86.3158   12.2848 O.2     1  UNL1       -0.2698
     29 H          62.7456   84.9561    9.7458 H       1  UNL1        0.1552
     30 N          63.5085   86.1656   13.1890 N.pl3   1  UNL1       -0.3560
     31 C          63.3429   84.6842   13.0216 C.ar    1  UNL1        0.0552
     32 C          63.7508   83.7545   14.1257 C.ar    1  UNL1        0.0153
     33 C          63.5852   82.2730   13.9583 C.ar    1  UNL1        0.0013
     34 C          63.0117   81.7214   12.6869 C.ar    1  UNL1        0.0014
     35 C          62.6037   82.6512   11.5828 C.ar    1  UNL1        0.0159
     36 C          62.7693   84.1326   11.7501 C.ar    1  UNL1        0.0636
     37 H          63.8850   86.5277   14.0235 H       1  UNL1        0.1424
     38 H          63.2408   86.7758   12.4643 H       1  UNL1        0.1424
@<TRIPOS>BOND
     1    30    31    1
     2    31    32   ar
     3    32    33   ar
     4    33    34   ar
     5    34    35   ar
     6    35    36   ar
     7    36    26    1
     8    26    27   am
     9    27    28    2
    10    27     1    1
    11     1     2   ar
    12     2     3   ar
    13     3     4   ar
    14     4     7    1
    15     7     8    1
    16     8     9    1
    17     9    10    1
    18    10    13    1
    19    13    14    1
    20    14    15    1
    21    15    16    2
    22    15    17   am
    23    17    19    1
    24    19    20   ar
    25    20    21   ar
    26    21    22   ar
    27    22    23   ar
    28    23    24   ar
    29    24    25    1
    30    10    11    1
    31    11    12    1
    32     4     5   ar
    33     5     6   ar
    34    36    31   ar
    35     6     1   ar
    36    12     7    1
    37    24    19   ar
    38    30    37    1
    39    30    38    1
    40    26    29    1
    41    17    18    1
@<TRIPOS>MOLECULE
*****
 38 41 0 0 0
SMALL
GASTEIGER

@<TRIPOS>ATOM
      1 C          59.7383   90.4784    5.7853 C.ar    1  UNL1        0.0537
      2 C          58.4456   91.0687    5.3051 C.ar    1  UNL1        0.0042
      3 C          58.4434   92.0390    4.1612 C.ar    1  UNL1       -0.0041
      4 C          59.7338   92.4191    3.4977 C.ar    1  UNL1       -0.0224
      5 C          61.0264   91.8288    3.9779 C.ar    1  UNL1       -0.0041
      6 C          61.0287   90.8585    5.1217 C.ar    1  UNL1        0.0042
      7 C          59.7316   93.3895    2.3538 C.3     1  UNL1        0.0251
      8 C          60.3604   94.7416    2.5161 C.3     1  UNL1        0.0217
      9 C          60.3582   95.7120    1.3723 C.3     1  UNL1        0.0724
     10 N          59.7272   95.3302    0.0662 N.3     1  UNL1       -0.2722
     11 C          59.0983   93.9781   -0.0962 C.3     1  UNL1        0.0724
     12 C          59.1005   93.0078    1.0476 C.3     1  UNL1        0.0217
     13 C          59.7250   96.3006   -1.0777 C.3     1  UNL1        0.0817
     14 C          58.4312   96.6864   -1.7315 C.3     1  UNL1        0.1026
     15 C          57.6243   95.6555   -2.4638 C.2     1  UNL1        0.2276
     16 O          56.2361   95.3232   -2.0027 O.2     1  UNL1       -0.2747
     17 N          58.2056   94.9570   -3.6571 N.am    1  UNL1       -0.2821
     18 H          59.1167   95.1750   -3.9598 H       1  UNL1        0.1549
     19 C          57.3987   93.9261   -4.3894 C.ar    1  UNL1        0.0781
     20 C          56.6330   94.3091   -5.6211 C.ar    1  UNL1        0.0170
     21 C          55.8260   93.2783   -6.3534 C.ar    1  UNL1        0.0014
     22 C          55.7848   91.8645   -5.8540 C.ar    1  UNL1        0.0024
     23 C          56.5505   91.4815   -4.6223 C.ar    1  UNL1        0.0309
     24 C          57.3575   92.5123   -3.8900 C.ar    1  UNL1        0.1535
     25 F          58.1232   92.1293   -2.6584 F       1  UNL1       -0.2029
     26 N          60.8112   89.5860    7.9767 N.am    1  UNL1       -0.2794
     27 C          59.7405   89.5080    6.9292 C.2     1  UNL1        0.2495
     28 O          58.6720   88.4597    7.0254 O.2     1  UNL1       -0.2698
     29 H          61.5126   90.2740    7.9136 H       1  UNL1        0.1552
     30 N          59.7901   90.4356   10.6666 N.pl3   1  UNL1       -0.3560
     31 C          60.3029   89.0404   10.4655 C.ar    1  UNL1        0.0552
     32 C          60.3051   88.0700   11.6093 C.ar    1  UNL1        0.0153
     33 C          60.8179   86.6748   11.4082 C.ar    1  UNL1        0.0013
     34 C          61.3285   86.2500   10.0633 C.ar    1  UNL1        0.0014
     35 C          61.3262   87.2203    8.9195 C.ar    1  UNL1        0.0159
     36 C          60.8135   88.6156    9.1206 C.ar    1  UNL1        0.0636
     37 H          59.4551   90.7144   11.5494 H       1  UNL1        0.1424
     38 H          59.7887   91.0725    9.9159 H       1  UNL1        0.1424
@<TRIPOS>BOND
     1    30    31    1
     2    31    32   ar
     3    32    33   ar
     4    33    34   ar
     5    34    35   ar
     6    35    36   ar
     7    36    26    1
     8    26    27   am
     9    27    28    2
    10    27     1    1
    11     1     2   ar
    12     2     3   ar
    13     3     4   ar
    14     4     7    1
    15     7     8    1
    16     8     9    1
    17     9    10    1
    18    10    13    1
    19    13    14    1
    20    14    15    1
    21    15    16    2
    22    15    17   am
    23    17    19    1
    24    19    20   ar
    25    20    21   ar
    26    21    22   ar
    27    22    23   ar
    28    23    24   ar
    29    24    25    1
    30    10    11    1
    31    11    12    1
    32     4     5   ar
    33     5     6   ar
    34    36    31   ar
    35     6     1   ar
    36    12     7    1
    37    24    19   ar
    38    30    37    1
    39    30    38    1
    40    26    29    1
    41    17    18    1
