@<TRIPOS>MOLECULE
*****
 22 24 0 0 0
SMALL
GASTEIGER

@<TRIPOS>ATOM
      1 C          62.7823   90.8246   11.9803 C.3     1  UNL1        0.1538
      2 C          66.4526   92.1005   14.2500 C.ar    1  UNL1        0.1057
      3 C          65.4042   91.2679   14.9264 C.ar    1  UNL1        0.0181
      4 C          64.1808   90.8426   14.1698 C.ar    1  UNL1       -0.0010
      5 C          64.0057   91.2499   12.7369 C.ar    1  UNL1        0.0022
      6 C          65.0541   92.0825   12.0605 C.ar    1  UNL1       -0.0010
      7 C          66.2775   92.5079   12.8171 C.ar    1  UNL1        0.0181
      8 C          68.8994   92.9512   15.7631 C.3     1  UNL1        0.1816
      9 S          67.6760   92.5259   15.0066 S.O2    1  UNL1        0.0104
     10 O          68.5119   92.3002   13.7817 O.2     1  UNL1       -0.1686
     11 O          66.8400   92.7515   16.2314 O.2     1  UNL1       -0.1686
     12 N          62.6363   89.4014   11.5295 N.ar    1  UNL1       -0.2449
     13 C          62.1794   88.9483   10.1745 C.ar    1  UNL1        0.0970
     14 C          62.1823   87.4482   10.1621 C.ar    1  UNL1        0.0397
     15 C          62.6410   86.9744   11.5094 C.ar    1  UNL1        0.1216
     16 N          62.9216   88.1815   12.3545 N.ar    1  UNL1       -0.1673
     17 C          61.7946   86.5754    9.0055 C.ar    1  UNL1        0.0061
     18 C          62.8035   85.6497    8.3932 C.ar    1  UNL1        0.0208
     19 C          62.4158   84.7769    7.2366 C.ar    1  UNL1        0.0989
     20 N          61.0191   84.8297    6.6923 N.ar    1  UNL1       -0.2423
     21 C          60.0101   85.7554    7.3046 C.ar    1  UNL1        0.0989
     22 C          60.3978   86.6282    8.4612 C.ar    1  UNL1        0.0208
@<TRIPOS>BOND
     1     8     9    1
     2     9    10    2
     3     9    11    2
     4     9     2    1
     5     2     3   ar
     6     3     4   ar
     7     4     5   ar
     8     5     1    1
     9     1    12    1
    10    12    13   ar
    11    13    14   ar
    12    14    17    1
    13    17    18   ar
    14    18    19   ar
    15    19    20   ar
    16    20    21   ar
    17    21    22   ar
    18    14    15   ar
    19    15    16   ar
    20     5     6   ar
    21     6     7   ar
    22     7     2   ar
    23    16    12   ar
    24    22    17   ar
@<TRIPOS>MOLECULE
*****
 22 24 0 0 0
SMALL
GASTEIGER

@<TRIPOS>ATOM
      1 C          61.7049   90.0285   10.4467 C.3     1  UNL1        0.1538
      2 C          65.0744   91.9205   12.7525 C.ar    1  UNL1        0.1057
      3 C          64.8993   92.2256   11.2944 C.ar    1  UNL1        0.0181
      4 C          63.7761   91.5949   10.5257 C.ar    1  UNL1       -0.0010
      5 C          62.8280   90.6592   11.2153 C.ar    1  UNL1        0.0022
      6 C          63.0031   90.3541   12.6734 C.ar    1  UNL1       -0.0010
      7 C          64.1263   90.9848   13.4420 C.ar    1  UNL1        0.0181
      8 C          67.3207   93.1818   14.2897 C.3     1  UNL1        0.1816
      9 S          66.1975   92.5512   13.5211 S.O2    1  UNL1        0.0104
     10 O          67.0417   92.5589   12.2812 O.2     1  UNL1       -0.1686
     11 O          65.3534   92.5434   14.7610 O.2     1  UNL1       -0.1686
     12 N          61.7021   88.5487   10.2013 N.ar    1  UNL1       -0.2449
     13 C          62.4812   87.5255   10.9733 C.ar    1  UNL1        0.0970
     14 C          62.1803   86.1767   10.3899 C.ar    1  UNL1        0.0397
     15 C          61.2151   86.3663    9.2574 C.ar    1  UNL1        0.1216
     16 N          60.9195   87.8323    9.1408 N.ar    1  UNL1       -0.1673
     17 C          62.7453   84.8680   10.8570 C.ar    1  UNL1        0.0061
     18 C          62.5398   84.4261   12.2756 C.ar    1  UNL1        0.0208
     19 C          63.1048   83.1174   12.7427 C.ar    1  UNL1        0.0989
     20 N          63.8753   82.2508   11.7913 N.ar    1  UNL1       -0.2423
     21 C          64.0807   82.6928   10.3727 C.ar    1  UNL1        0.0989
     22 C          63.5157   84.0014    9.9056 C.ar    1  UNL1        0.0208
@<TRIPOS>BOND
     1     8     9    1
     2     9    10    2
     3     9    11    2
     4     9     2    1
     5     2     3   ar
     6     3     4   ar
     7     4     5   ar
     8     5     1    1
     9     1    12    1
    10    12    13   ar
    11    13    14   ar
    12    14    17    1
    13    17    18   ar
    14    18    19   ar
    15    19    20   ar
    16    20    21   ar
    17    21    22   ar
    18    14    15   ar
    19    15    16   ar
    20     5     6   ar
    21     6     7   ar
    22     7     2   ar
    23    16    12   ar
    24    22    17   ar
@<TRIPOS>MOLECULE
*****
 22 24 0 0 0
SMALL
GASTEIGER

@<TRIPOS>ATOM
      1 C          61.6869   90.0338   10.3379 C.3     1  UNL1        0.1538
      2 C          65.0126   91.9310   12.7023 C.ar    1  UNL1        0.1057
      3 C          64.0270   91.0293   13.3847 C.ar    1  UNL1        0.0181
      4 C          62.9185   90.3970   12.5965 C.ar    1  UNL1       -0.0010
      5 C          62.7955   90.6662   11.1261 C.ar    1  UNL1        0.0022
      6 C          63.7810   91.5678   10.4437 C.ar    1  UNL1       -0.0010
      7 C          64.8896   92.2002   11.2319 C.ar    1  UNL1        0.0181
      8 C          67.2298   93.1958   14.2786 C.3     1  UNL1        0.1816
      9 S          66.1212   92.5634   13.4905 S.O2    1  UNL1        0.0104
     10 O          66.8859   92.8032   12.2225 O.2     1  UNL1       -0.1686
     11 O          65.3565   92.3236   14.7585 O.2     1  UNL1       -0.1686
     12 N          61.6481   88.5450   10.1598 N.ar    1  UNL1       -0.2449
     13 C          62.5011   87.5475   10.8860 C.ar    1  UNL1        0.0970
     14 C          62.1296   86.1782   10.3991 C.ar    1  UNL1        0.0397
     15 C          61.0469   86.3294    9.3719 C.ar    1  UNL1        0.1216
     16 N          60.7494   87.7921    9.2240 N.ar    1  UNL1       -0.1673
     17 C          62.7345   84.8848   10.8587 C.ar    1  UNL1        0.0061
     18 C          63.4960   84.0276    9.8917 C.ar    1  UNL1        0.0208
     19 C          64.1009   82.7342   10.3513 C.ar    1  UNL1        0.0989
     20 N          63.9443   82.2980   11.7779 N.ar    1  UNL1       -0.2423
     21 C          63.1828   83.1553   12.7449 C.ar    1  UNL1        0.0989
     22 C          62.5778   84.4487   12.2853 C.ar    1  UNL1        0.0208
@<TRIPOS>BOND
     1     8     9    1
     2     9    10    2
     3     9    11    2
     4     9     2    1
     5     2     3   ar
     6     3     4   ar
     7     4     5   ar
     8     5     1    1
     9     1    12    1
    10    12    13   ar
    11    13    14   ar
    12    14    17    1
    13    17    18   ar
    14    18    19   ar
    15    19    20   ar
    16    20    21   ar
    17    21    22   ar
    18    14    15   ar
    19    15    16   ar
    20     5     6   ar
    21     6     7   ar
    22     7     2   ar
    23    16    12   ar
    24    22    17   ar
@<TRIPOS>MOLECULE
*****
 22 24 0 0 0
SMALL
GASTEIGER

@<TRIPOS>ATOM
      1 C          63.8363   85.4871   16.2266 C.3     1  UNL1        0.1538
      2 C          63.3564   82.5851   12.8210 C.ar    1  UNL1        0.1057
      3 C          62.4281   82.5210   13.9975 C.ar    1  UNL1        0.0181
      4 C          62.5881   83.4884   15.1327 C.ar    1  UNL1       -0.0010
      5 C          63.6763   84.5198   15.0914 C.ar    1  UNL1        0.0022
      6 C          64.6046   84.5838   13.9149 C.ar    1  UNL1       -0.0010
      7 C          64.4446   83.6165   12.7797 C.ar    1  UNL1        0.0181
      8 C          63.0364   80.6503   10.5507 C.3     1  UNL1        0.1816
      9 S          63.1964   81.6177   11.6859 S.O2    1  UNL1        0.0104
     10 O          62.5146   80.6497   12.6069 O.2     1  UNL1       -0.1686
     11 O          63.8781   82.5857   10.7649 O.2     1  UNL1       -0.1686
     12 N          63.7587   86.9631   15.9708 N.ar    1  UNL1       -0.2449
     13 C          64.3680   87.6898   14.8086 C.ar    1  UNL1        0.0970
     14 C          64.0439   89.1474   14.9518 C.ar    1  UNL1        0.0397
     15 C          63.2344   89.3216   16.2026 C.ar    1  UNL1        0.1216
     16 N          63.0581   87.9716   16.8323 N.ar    1  UNL1       -0.1673
     17 C          64.4569   90.2392   14.0097 C.ar    1  UNL1        0.0061
     18 C          65.5920   91.1510   14.3699 C.ar    1  UNL1        0.0208
     19 C          66.0050   92.2428   13.4279 C.ar    1  UNL1        0.0989
     20 N          65.2829   92.4226   12.1256 N.ar    1  UNL1       -0.2423
     21 C          64.1477   91.5107   11.7653 C.ar    1  UNL1        0.0989
     22 C          63.7347   90.4190   12.7074 C.ar    1  UNL1        0.0208
@<TRIPOS>BOND
     1     8     9    1
     2     9    10    2
     3     9    11    2
     4     9     2    1
     5     2     3   ar
     6     3     4   ar
     7     4     5   ar
     8     5     1    1
     9     1    12    1
    10    12    13   ar
    11    13    14   ar
    12    14    17    1
    13    17    18   ar
    14    18    19   ar
    15    19    20   ar
    16    20    21   ar
    17    21    22   ar
    18    14    15   ar
    19    15    16   ar
    20     5     6   ar
    21     6     7   ar
    22     7     2   ar
    23    16    12   ar
    24    22    17   ar
@<TRIPOS>MOLECULE
*****
 22 24 0 0 0
SMALL
GASTEIGER

@<TRIPOS>ATOM
      1 C          63.7355   90.8224   15.8036 C.3     1  UNL1        0.1538
      2 C          63.7729   86.3335   15.4906 C.ar    1  UNL1        0.1057
      3 C          63.1738   86.9963   16.6955 C.ar    1  UNL1        0.0181
      4 C          63.1613   88.4927   16.7998 C.ar    1  UNL1       -0.0010
      5 C          63.7480   89.3261   15.6993 C.ar    1  UNL1        0.0022
      6 C          64.3471   88.6633   14.4945 C.ar    1  UNL1       -0.0010
      7 C          64.3596   87.1669   14.3901 C.ar    1  UNL1        0.0181
      8 C          63.7979   83.3408   15.2820 C.3     1  UNL1        0.1816
      9 S          63.7854   84.8372   15.3863 S.O2    1  UNL1        0.0104
     10 O          62.5149   84.7712   16.1810 O.2     1  UNL1       -0.1686
     11 O          65.0559   84.9032   14.5917 O.2     1  UNL1       -0.1686
     12 N          64.7559   91.6345   15.0624 N.ar    1  UNL1       -0.2449
     13 C          64.9226   91.6940   13.5729 C.ar    1  UNL1        0.0970
     14 C          66.0586   92.6259   13.2704 C.ar    1  UNL1        0.0397
     15 C          66.5938   93.1423   14.5731 C.ar    1  UNL1        0.1216
     16 N          65.7887   92.5296   15.6806 N.ar    1  UNL1       -0.1673
     17 C          66.5695   92.9793   11.9052 C.ar    1  UNL1        0.0061
     18 C          66.1021   94.2353   11.2314 C.ar    1  UNL1        0.0208
     19 C          66.6130   94.5887    9.8661 C.ar    1  UNL1        0.0989
     20 N          67.5913   93.6862    9.1746 N.ar    1  UNL1       -0.2423
     21 C          68.0586   92.4301    9.8483 C.ar    1  UNL1        0.0989
     22 C          67.5477   92.0767   11.2136 C.ar    1  UNL1        0.0208
@<TRIPOS>BOND
     1     8     9    1
     2     9    10    2
     3     9    11    2
     4     9     2    1
     5     2     3   ar
     6     3     4   ar
     7     4     5   ar
     8     5     1    1
     9     1    12    1
    10    12    13   ar
    11    13    14   ar
    12    14    17    1
    13    17    18   ar
    14    18    19   ar
    15    19    20   ar
    16    20    21   ar
    17    21    22   ar
    18    14    15   ar
    19    15    16   ar
    20     5     6   ar
    21     6     7   ar
    22     7     2   ar
    23    16    12   ar
    24    22    17   ar
@<TRIPOS>MOLECULE
*****
 22 24 0 0 0
SMALL
GASTEIGER

@<TRIPOS>ATOM
      1 C          63.4802   90.2662   13.6278 C.3     1  UNL1        0.1538
      2 C          63.8775   85.7845   13.5476 C.ar    1  UNL1        0.1057
      3 C          64.4407   86.5669   14.6967 C.ar    1  UNL1        0.0181
      4 C          64.3083   88.0608   14.7234 C.ar    1  UNL1       -0.0010
      5 C          63.6126   88.7723   13.6011 C.ar    1  UNL1        0.0022
      6 C          63.0494   87.9899   12.4520 C.ar    1  UNL1       -0.0010
      7 C          63.1818   86.4960   12.4252 C.ar    1  UNL1        0.0181
      8 C          64.1423   82.7967   13.4942 C.3     1  UNL1        0.1816
      9 S          64.0099   84.2906   13.5209 S.O2    1  UNL1        0.0104
     10 O          64.5578   84.3142   14.9171 O.2     1  UNL1       -0.1686
     11 O          63.4620   84.2670   12.1248 O.2     1  UNL1       -0.1686
     12 N          64.6476   91.1295   13.2510 N.ar    1  UNL1       -0.2449
     13 C          64.7436   92.0003   12.0335 C.ar    1  UNL1        0.0970
     14 C          66.0793   92.6826   12.0556 C.ar    1  UNL1        0.0397
     15 C          66.8088   92.2334   13.2870 C.ar    1  UNL1        0.1216
     16 N          65.9240   91.2736   14.0258 N.ar    1  UNL1       -0.1673
     17 C          66.5950   93.6450   11.0272 C.ar    1  UNL1        0.0061
     18 C          67.3482   93.1355    9.8343 C.ar    1  UNL1        0.0208
     19 C          67.8638   94.0980    8.8058 C.ar    1  UNL1        0.0989
     20 N          67.6263   95.5698    8.9702 N.ar    1  UNL1       -0.2423
     21 C          66.8731   96.0793   10.1631 C.ar    1  UNL1        0.0989
     22 C          66.3575   95.1169   11.1916 C.ar    1  UNL1        0.0208
@<TRIPOS>BOND
     1     8     9    1
     2     9    10    2
     3     9    11    2
     4     9     2    1
     5     2     3   ar
     6     3     4   ar
     7     4     5   ar
     8     5     1    1
     9     1    12    1
    10    12    13   ar
    11    13    14   ar
    12    14    17    1
    13    17    18   ar
    14    18    19   ar
    15    19    20   ar
    16    20    21   ar
    17    21    22   ar
    18    14    15   ar
    19    15    16   ar
    20     5     6   ar
    21     6     7   ar
    22     7     2   ar
    23    16    12   ar
    24    22    17   ar
@<TRIPOS>MOLECULE
*****
 22 24 0 0 0
SMALL
GASTEIGER

@<TRIPOS>ATOM
      1 C          64.2139   86.9080   15.6011 C.3     1  UNL1        0.1538
      2 C          63.1063   82.7918   14.1591 C.ar    1  UNL1        0.1057
      3 C          64.2637   83.5172   13.5396 C.ar    1  UNL1        0.0181
      4 C          64.6330   84.8893   14.0202 C.ar    1  UNL1       -0.0010
      5 C          63.8447   85.5360   15.1204 C.ar    1  UNL1        0.0022
      6 C          62.6872   84.8105   15.7399 C.ar    1  UNL1       -0.0010
      7 C          62.3180   83.4384   15.2593 C.ar    1  UNL1        0.0181
      8 C          62.3678   80.0476   13.1978 C.3     1  UNL1        0.1816
      9 S          62.7370   81.4197   13.6784 S.O2    1  UNL1        0.0104
     10 O          64.0687   81.2995   12.9985 O.2     1  UNL1       -0.1686
     11 O          61.4054   81.5398   14.3584 O.2     1  UNL1       -0.1686
     12 N          64.2079   88.0643   14.6456 N.ar    1  UNL1       -0.2449
     13 C          65.0113   89.3238   14.7805 C.ar    1  UNL1        0.0970
     14 C          64.6973   90.2021   13.6056 C.ar    1  UNL1        0.0397
     15 C          63.6998   89.4853   12.7446 C.ar    1  UNL1        0.1216
     16 N          63.3973   88.1641   13.3873 N.ar    1  UNL1       -0.1673
     17 C          65.2787   91.5588   13.3387 C.ar    1  UNL1        0.0061
     18 C          65.1409   92.1797   11.9803 C.ar    1  UNL1        0.0208
     19 C          65.7223   93.5364   11.7133 C.ar    1  UNL1        0.0989
     20 N          66.4414   94.2722   12.8048 N.ar    1  UNL1       -0.2423
     21 C          66.5792   93.6512   14.1633 C.ar    1  UNL1        0.0989
     22 C          65.9978   92.2945   14.4302 C.ar    1  UNL1        0.0208
@<TRIPOS>BOND
     1     8     9    1
     2     9    10    2
     3     9    11    2
     4     9     2    1
     5     2     3   ar
     6     3     4   ar
     7     4     5   ar
     8     5     1    1
     9     1    12    1
    10    12    13   ar
    11    13    14   ar
    12    14    17    1
    13    17    18   ar
    14    18    19   ar
    15    19    20   ar
    16    20    21   ar
    17    21    22   ar
    18    14    15   ar
    19    15    16   ar
    20     5     6   ar
    21     6     7   ar
    22     7     2   ar
    23    16    12   ar
    24    22    17   ar
@<TRIPOS>MOLECULE
*****
 22 24 0 0 0
SMALL
GASTEIGER

@<TRIPOS>ATOM
      1 C          61.6169   88.2548    9.8468 C.3     1  UNL1        0.1538
      2 C          63.0470   84.1062   10.8434 C.ar    1  UNL1        0.1057
      3 C          62.4220   84.9597   11.9068 C.ar    1  UNL1        0.0181
      4 C          61.9453   86.3425   11.5746 C.ar    1  UNL1       -0.0010
      5 C          62.0936   86.8719   10.1790 C.ar    1  UNL1        0.0022
      6 C          62.7186   86.0184    9.1156 C.ar    1  UNL1       -0.0010
      7 C          63.1953   84.6356    9.4478 C.ar    1  UNL1        0.0181
      8 C          64.0004   81.3404   11.5078 C.3     1  UNL1        0.1816
      9 S          63.5237   82.7233   11.1756 S.O2    1  UNL1        0.0104
     10 O          62.3022   82.5046   12.0183 O.2     1  UNL1       -0.1686
     11 O          64.7452   82.9419   10.3329 O.2     1  UNL1       -0.1686
     12 N          62.3922   89.4490   10.3187 N.ar    1  UNL1       -0.2449
     13 C          63.0463   89.6018   11.6599 C.ar    1  UNL1        0.0970
     14 C          63.7080   90.9474   11.7024 C.ar    1  UNL1        0.0397
     15 C          63.4629   91.6261   10.3873 C.ar    1  UNL1        0.1216
     16 N          62.6497   90.7001    9.5322 N.ar    1  UNL1       -0.1673
     17 C          64.4794   91.5145   12.8571 C.ar    1  UNL1        0.0061
     18 C          64.2396   90.9986   14.2449 C.ar    1  UNL1        0.0208
     19 C          65.0110   91.5657   15.3996 C.ar    1  UNL1        0.0989
     20 N          66.0221   92.6488   15.1665 N.ar    1  UNL1       -0.2423
     21 C          66.2619   93.1648   13.7785 C.ar    1  UNL1        0.0989
     22 C          65.4905   92.5976   12.6238 C.ar    1  UNL1        0.0208
@<TRIPOS>BOND
     1     8     9    1
     2     9    10    2
     3     9    11    2
     4     9     2    1
     5     2     3   ar
     6     3     4   ar
     7     4     5   ar
     8     5     1    1
     9     1    12    1
    10    12    13   ar
    11    13    14   ar
    12    14    17    1
    13    17    18   ar
    14    18    19   ar
    15    19    20   ar
    16    20    21   ar
    17    21    22   ar
    18    14    15   ar
    19    15    16   ar
    20     5     6   ar
    21     6     7   ar
    22     7     2   ar
    23    16    12   ar
    24    22    17   ar
@<TRIPOS>MOLECULE
*****
 22 24 0 0 0
SMALL
GASTEIGER

@<TRIPOS>ATOM
      1 C          62.1374   89.7271   11.4788 C.3     1  UNL1        0.1538
      2 C          62.7618   85.2722   11.5962 C.ar    1  UNL1        0.1057
      3 C          63.3582   86.1415   12.6632 C.ar    1  UNL1        0.0181
      4 C          63.1501   87.6265   12.6241 C.ar    1  UNL1       -0.0010
      5 C          62.3455   88.2421   11.5179 C.ar    1  UNL1        0.0022
      6 C          61.7491   87.3728   10.4509 C.ar    1  UNL1       -0.0010
      7 C          61.9573   85.8878   10.4901 C.ar    1  UNL1        0.0181
      8 C          63.1781   82.3022   11.6745 C.3     1  UNL1        0.1816
      9 S          62.9700   83.7872   11.6354 S.O2    1  UNL1        0.0104
     10 O          63.4090   83.8109   10.2012 O.2     1  UNL1       -0.1686
     11 O          62.5309   83.7635   13.0695 O.2     1  UNL1       -0.1686
     12 N          63.2887   90.6529   11.7380 N.ar    1  UNL1       -0.2449
     13 C          64.0447   91.4312   10.7023 C.ar    1  UNL1        0.0970
     14 C          65.1095   92.2224   11.4027 C.ar    1  UNL1        0.0397
     15 C          65.0115   91.9329   12.8713 C.ar    1  UNL1        0.1216
     16 N          63.8862   90.9630   13.0785 N.ar    1  UNL1       -0.1673
     17 C          66.0986   93.1415   10.7492 C.ar    1  UNL1        0.0061
     18 C          65.9136   94.6273   10.8376 C.ar    1  UNL1        0.0208
     19 C          66.9027   95.5464   10.1842 C.ar    1  UNL1        0.0989
     20 N          68.0766   94.9797    9.4423 N.ar    1  UNL1       -0.2423
     21 C          68.2616   93.4937    9.3539 C.ar    1  UNL1        0.0989
     22 C          67.2726   92.5746   10.0073 C.ar    1  UNL1        0.0208
@<TRIPOS>BOND
     1     8     9    1
     2     9    10    2
     3     9    11    2
     4     9     2    1
     5     2     3   ar
     6     3     4   ar
     7     4     5   ar
     8     5     1    1
     9     1    12    1
    10    12    13   ar
    11    13    14   ar
    12    14    17    1
    13    17    18   ar
    14    18    19   ar
    15    19    20   ar
    16    20    21   ar
    17    21    22   ar
    18    14    15   ar
    19    15    16   ar
    20     5     6   ar
    21     6     7   ar
    22     7     2   ar
    23    16    12   ar
    24    22    17   ar
