@<TRIPOS>MOLECULE
*****
 31 35 0 0 0
SMALL
GASTEIGER

@<TRIPOS>ATOM
      1 C          63.7706   87.2941   14.5443 C.ar    1  UNL1        0.1385
      2 C          63.1960   87.4141   13.1640 C.ar    1  UNL1        0.0384
      3 C          63.4258   88.6604   12.3616 C.ar    1  UNL1        0.0203
      4 C          64.2303   89.7868   12.9396 C.ar    1  UNL1        0.0602
      5 C          64.8050   89.6668   14.3199 C.ar    1  UNL1        0.0204
      6 C          64.5752   88.4205   15.1222 C.ar    1  UNL1        0.0384
      7 C          65.5505   90.9326   14.6232 C.ar    1  UNL1        0.0234
      8 C          65.4366   91.8349   13.4303 C.ar    1  UNL1        0.1143
      9 N          64.6207   91.1267   12.3898 N.ar    1  UNL1       -0.3219
     10 C          64.3386   91.7935   11.0761 C.3     1  UNL1        0.1276
     11 C          64.8724   93.1684   10.8030 C.3     1  UNL1        0.1185
     12 N          65.6883   93.8765   11.8435 N.am    1  UNL1       -0.2688
     13 C          65.9704   93.2097   13.1572 C.2     1  UNL1        0.2652
     14 O          66.7864   93.9179   14.1978 O.2     1  UNL1       -0.2683
     15 O          63.5408   86.0477   15.3467 O.3     1  UNL1       -0.4791
     16 N          62.9665   82.1023   13.2602 N.3     1  UNL1       -0.2737
     17 C          64.1861   82.9289   12.9789 C.3     1  UNL1        0.0758
     18 C          64.3776   84.2441   13.6744 C.3     1  UNL1        0.0609
     19 C          63.3494   84.7326   14.6512 C.3     1  UNL1        0.1687
     20 C          62.1297   83.9060   14.9324 C.3     1  UNL1        0.0609
     21 C          61.9382   82.5909   14.2369 C.3     1  UNL1        0.0758
     22 C          62.3194   79.5874   13.3411 C.3     1  UNL1        0.0173
     23 C          62.7750   80.7872   12.5646 C.3     1  UNL1        0.0576
     24 C          63.0392   80.6718   11.0926 C.3     1  UNL1        0.0173
     25 C          66.2222   95.2515   11.5704 C.3     1  UNL1        0.1206
     26 C          66.2500   95.7801   10.1669 C.ar    1  UNL1        0.0008
     27 C          64.9988   96.3273    9.5466 C.ar    1  UNL1        0.0181
     28 C          65.0266   96.8559    8.1430 C.ar    1  UNL1        0.0986
     29 N          66.3058   96.8373    7.3599 N.ar    1  UNL1       -0.2423
     30 C          67.5571   96.2900    7.9802 C.ar    1  UNL1        0.0986
     31 C          67.5292   95.7614    9.3838 C.ar    1  UNL1        0.0181
@<TRIPOS>BOND
     1    22    23    1
     2    23    24    1
     3    23    16    1
     4    16    17    1
     5    17    18    1
     6    18    19    1
     7    19    15    1
     8    15     1    1
     9     1     2   ar
    10     2     3   ar
    11     3     4   ar
    12     4     5   ar
    13     5     6   ar
    14     5     7   ar
    15     7     8   ar
    16     8     9   ar
    17     9    10    1
    18    10    11    1
    19    11    12    1
    20    12    25    1
    21    25    26    1
    22    26    27   ar
    23    27    28   ar
    24    28    29   ar
    25    29    30   ar
    26    30    31   ar
    27    12    13   am
    28    13    14    2
    29    19    20    1
    30    20    21    1
    31    21    16    1
    32     6     1   ar
    33    13     8    1
    34     9     4   ar
    35    31    26   ar
@<TRIPOS>MOLECULE
*****
 31 35 0 0 0
SMALL
GASTEIGER

@<TRIPOS>ATOM
      1 C          58.9076   90.3114    5.8649 C.ar    1  UNL1        0.1385
      2 C          57.9891   91.3475    5.2880 C.ar    1  UNL1        0.0384
      3 C          58.4975   92.3089    4.2550 C.ar    1  UNL1        0.0203
      4 C          59.9245   92.2342    3.7988 C.ar    1  UNL1        0.0602
      5 C          60.8431   91.1982    4.3757 C.ar    1  UNL1        0.0204
      6 C          60.3346   90.2368    5.4087 C.ar    1  UNL1        0.0384
      7 C          62.1896   91.3649    3.7362 C.ar    1  UNL1        0.0234
      8 C          62.1033   92.5041    2.7641 C.ar    1  UNL1        0.1143
      9 N          60.7034   93.0413    2.8028 N.ar    1  UNL1       -0.3219
     10 C          60.3187   94.1960    1.9262 C.3     1  UNL1        0.1276
     11 C          61.3340   94.8135    1.0108 C.3     1  UNL1        0.1185
     12 N          62.7339   94.2762    0.9721 N.am    1  UNL1       -0.2688
     13 C          63.1186   93.1215    1.8488 C.2     1  UNL1        0.2652
     14 O          64.5186   92.5842    1.8101 O.2     1  UNL1       -0.2683
     15 O          58.3992   89.3500    6.8980 O.3     1  UNL1       -0.4791
     16 N          61.2774   86.6778    9.0946 N.3     1  UNL1       -0.2737
     17 C          60.3802   86.1055    8.0377 C.3     1  UNL1        0.0758
     18 C          59.4207   86.9962    7.3054 C.3     1  UNL1        0.0609
     19 C          59.3586   88.4593    7.6302 C.3     1  UNL1        0.1687
     20 C          60.2559   89.0317    8.6872 C.3     1  UNL1        0.0609
     21 C          61.2153   88.1410    9.4194 C.3     1  UNL1        0.0758
     22 C          62.2513   85.7727   11.3267 C.3     1  UNL1        0.0173
     23 C          62.2368   85.7871    9.8269 C.3     1  UNL1        0.0576
     24 C          63.1818   84.9108    9.0592 C.3     1  UNL1        0.0173
     25 C          63.7493   94.8937    0.0567 C.3     1  UNL1        0.1206
     26 C          63.7529   94.5463   -1.4026 C.ar    1  UNL1        0.0008
     27 C          64.5386   95.3808   -2.3702 C.ar    1  UNL1        0.0181
     28 C          64.5422   95.0335   -3.8295 C.ar    1  UNL1        0.0986
     29 N          63.7602   93.8516   -4.3210 N.ar    1  UNL1       -0.2423
     30 C          62.9745   93.0172   -3.3533 C.ar    1  UNL1        0.0986
     31 C          62.9709   93.3645   -1.8941 C.ar    1  UNL1        0.0181
@<TRIPOS>BOND
     1    22    23    1
     2    23    24    1
     3    23    16    1
     4    16    17    1
     5    17    18    1
     6    18    19    1
     7    19    15    1
     8    15     1    1
     9     1     2   ar
    10     2     3   ar
    11     3     4   ar
    12     4     5   ar
    13     5     6   ar
    14     5     7   ar
    15     7     8   ar
    16     8     9   ar
    17     9    10    1
    18    10    11    1
    19    11    12    1
    20    12    25    1
    21    25    26    1
    22    26    27   ar
    23    27    28   ar
    24    28    29   ar
    25    29    30   ar
    26    30    31   ar
    27    12    13   am
    28    13    14    2
    29    19    20    1
    30    20    21    1
    31    21    16    1
    32     6     1   ar
    33    13     8    1
    34     9     4   ar
    35    31    26   ar
@<TRIPOS>MOLECULE
*****
 31 35 0 0 0
SMALL
GASTEIGER

@<TRIPOS>ATOM
      1 C          59.3456   89.1997    7.2245 C.ar    1  UNL1        0.1385
      2 C          59.2387   87.7036    7.2337 C.ar    1  UNL1        0.0384
      3 C          59.9648   86.9063    8.2764 C.ar    1  UNL1        0.0203
      4 C          60.7977   87.6051    9.3098 C.ar    1  UNL1        0.0602
      5 C          60.9045   89.1013    9.3005 C.ar    1  UNL1        0.0204
      6 C          60.1785   89.8986    8.2579 C.ar    1  UNL1        0.0384
      7 C          61.7935   89.5095   10.4376 C.ar    1  UNL1        0.0234
      8 C          62.2362   88.2656   11.1496 C.ar    1  UNL1        0.1143
      9 N          61.6207   87.0886   10.4526 N.ar    1  UNL1       -0.3219
     10 C          61.8892   85.6988   10.9485 C.3     1  UNL1        0.1276
     11 C          62.7731   85.4858   12.1415 C.3     1  UNL1        0.1185
     12 N          63.3886   86.6628   12.8386 N.am    1  UNL1       -0.2688
     13 C          63.1201   88.0528   12.3426 C.2     1  UNL1        0.2652
     14 O          63.7356   89.2298   13.0397 O.2     1  UNL1       -0.2683
     15 O          58.6195   89.9971    6.1818 O.3     1  UNL1       -0.4791
     16 N          60.9366   92.4857    3.2344 N.3     1  UNL1       -0.2737
     17 C          61.6290   91.4060    4.0120 C.3     1  UNL1        0.0758
     18 C          60.8566   90.5764    4.9946 C.3     1  UNL1        0.0609
     19 C          59.3919   90.8266    5.1994 C.3     1  UNL1        0.1687
     20 C          58.6995   91.9064    4.4217 C.3     1  UNL1        0.0609
     21 C          59.4719   92.7359    3.4392 C.3     1  UNL1        0.0758
     22 C          61.0265   94.4233    1.5059 C.3     1  UNL1        0.0173
     23 C          61.7090   93.3153    2.2519 C.3     1  UNL1        0.0576
     24 C          63.1638   93.0368    2.0154 C.3     1  UNL1        0.0173
     25 C          64.2726   86.4499   14.0316 C.3     1  UNL1        0.1206
     26 C          63.7457   86.7109   15.4116 C.ar    1  UNL1        0.0008
     27 C          63.6523   88.1171   15.9251 C.ar    1  UNL1        0.0181
     28 C          63.1254   88.3782   17.3051 C.ar    1  UNL1        0.0986
     29 N          62.6920   87.2330   18.1714 N.ar    1  UNL1       -0.2423
     30 C          62.7854   85.8268   17.6579 C.ar    1  UNL1        0.0986
     31 C          63.3123   85.5657   16.2779 C.ar    1  UNL1        0.0181
@<TRIPOS>BOND
     1    22    23    1
     2    23    24    1
     3    23    16    1
     4    16    17    1
     5    17    18    1
     6    18    19    1
     7    19    15    1
     8    15     1    1
     9     1     2   ar
    10     2     3   ar
    11     3     4   ar
    12     4     5   ar
    13     5     6   ar
    14     5     7   ar
    15     7     8   ar
    16     8     9   ar
    17     9    10    1
    18    10    11    1
    19    11    12    1
    20    12    25    1
    21    25    26    1
    22    26    27   ar
    23    27    28   ar
    24    28    29   ar
    25    29    30   ar
    26    30    31   ar
    27    12    13   am
    28    13    14    2
    29    19    20    1
    30    20    21    1
    31    21    16    1
    32     6     1   ar
    33    13     8    1
    34     9     4   ar
    35    31    26   ar
@<TRIPOS>MOLECULE
*****
 31 35 0 0 0
SMALL
GASTEIGER

@<TRIPOS>ATOM
      1 C          59.3682   89.7973    6.8341 C.ar    1  UNL1        0.1385
      2 C          59.1106   88.3507    6.5327 C.ar    1  UNL1        0.0384
      3 C          59.6731   87.2865    7.4277 C.ar    1  UNL1        0.0203
      4 C          60.4932   87.6689    8.6240 C.ar    1  UNL1        0.0602
      5 C          60.7508   89.1156    8.9254 C.ar    1  UNL1        0.0204
      6 C          60.1882   90.1798    8.0304 C.ar    1  UNL1        0.0384
      7 C          61.5895   89.1882   10.1668 C.ar    1  UNL1        0.0234
      8 C          61.8503   87.7864   10.6327 C.ar    1  UNL1        0.1143
      9 N          61.1728   86.8474    9.6792 N.ar    1  UNL1       -0.3219
     10 C          61.2622   85.3658    9.8950 C.3     1  UNL1        0.1276
     11 C          62.0291   84.8231   11.0643 C.3     1  UNL1        0.1185
     12 N          62.7066   85.7620   12.0178 N.am    1  UNL1       -0.2688
     13 C          62.6172   87.2438   11.8020 C.2     1  UNL1        0.2652
     14 O          63.2948   88.1828   12.7556 O.2     1  UNL1       -0.2683
     15 O          58.8057   90.8616    5.9391 O.3     1  UNL1       -0.4791
     16 N          61.3377   92.6097    2.6553 N.3     1  UNL1       -0.2737
     17 C          59.9008   93.0179    2.7925 C.3     1  UNL1        0.0758
     18 C          59.0568   92.4352    3.8871 C.3     1  UNL1        0.0609
     19 C          59.6496   91.4443    4.8445 C.3     1  UNL1        0.1687
     20 C          61.0865   91.0361    4.7073 C.3     1  UNL1        0.0609
     21 C          61.9305   91.6188    3.6128 C.3     1  UNL1        0.0758
     22 C          61.5307   93.7774    0.3425 C.3     1  UNL1        0.0173
     23 C          62.1816   93.1924    1.5608 C.3     1  UNL1        0.0576
     24 C          63.6766   93.1901    1.6844 C.3     1  UNL1        0.0173
     25 C          63.4736   85.2193   13.1871 C.3     1  UNL1        0.1206
     26 C          63.3856   83.7618   13.5305 C.ar    1  UNL1        0.0008
     27 C          62.2940   83.2685   14.4332 C.ar    1  UNL1        0.0181
     28 C          62.2060   81.8110   14.7766 C.ar    1  UNL1        0.0986
     29 N          63.2096   80.8468   14.2172 N.ar    1  UNL1       -0.2423
     30 C          64.3012   81.3401   13.3144 C.ar    1  UNL1        0.0986
     31 C          64.3892   82.7976   12.9711 C.ar    1  UNL1        0.0181
@<TRIPOS>BOND
     1    22    23    1
     2    23    24    1
     3    23    16    1
     4    16    17    1
     5    17    18    1
     6    18    19    1
     7    19    15    1
     8    15     1    1
     9     1     2   ar
    10     2     3   ar
    11     3     4   ar
    12     4     5   ar
    13     5     6   ar
    14     5     7   ar
    15     7     8   ar
    16     8     9   ar
    17     9    10    1
    18    10    11    1
    19    11    12    1
    20    12    25    1
    21    25    26    1
    22    26    27   ar
    23    27    28   ar
    24    28    29   ar
    25    29    30   ar
    26    30    31   ar
    27    12    13   am
    28    13    14    2
    29    19    20    1
    30    20    21    1
    31    21    16    1
    32     6     1   ar
    33    13     8    1
    34     9     4   ar
    35    31    26   ar
@<TRIPOS>MOLECULE
*****
 31 35 0 0 0
SMALL
GASTEIGER

@<TRIPOS>ATOM
      1 C          65.7666   92.8918   13.5819 C.ar    1  UNL1        0.1385
      2 C          66.3165   92.1243   14.7474 C.ar    1  UNL1        0.0384
      3 C          65.9154   90.6948   14.9606 C.ar    1  UNL1        0.0203
      4 C          64.9643   90.0327   14.0082 C.ar    1  UNL1        0.0602
      5 C          64.4143   90.8002   12.8426 C.ar    1  UNL1        0.0204
      6 C          64.8154   92.2297   12.6295 C.ar    1  UNL1        0.0384
      7 C          63.5018   89.8888   12.0766 C.ar    1  UNL1        0.0234
      8 C          63.4879   88.5581   12.7687 C.ar    1  UNL1        0.1143
      9 N          64.3917   88.6470   13.9625 N.ar    1  UNL1       -0.3219
     10 C          64.5766   87.4548   14.8537 C.3     1  UNL1        0.1276
     11 C          63.8576   86.1735   14.5511 C.3     1  UNL1        0.1185
     12 N          62.9538   86.0846   13.3573 N.am    1  UNL1       -0.2688
     13 C          62.7689   87.2769   12.4661 C.2     1  UNL1        0.2652
     14 O          61.8650   87.1880   11.2722 O.2     1  UNL1       -0.2683
     15 O          66.1677   94.3214   13.3686 O.3     1  UNL1       -0.4791
     16 N          66.3574   96.0075    9.2008 N.3     1  UNL1       -0.2737
     17 C          66.7974   94.5971    9.4600 C.3     1  UNL1        0.0758
     18 C          66.7342   94.0351   10.8493 C.3     1  UNL1        0.0609
     19 C          66.2309   94.8834   11.9794 C.3     1  UNL1        0.1687
     20 C          65.7909   96.2938   11.7201 C.3     1  UNL1        0.0609
     21 C          65.8541   96.8558   10.3309 C.3     1  UNL1        0.0758
     22 C          67.7500   96.8463    7.1742 C.3     1  UNL1        0.0173
     23 C          66.4206   96.5695    7.8115 C.3     1  UNL1        0.0576
     24 C          65.1544   96.8548    7.0595 C.3     1  UNL1        0.0173
     25 C          62.2348   84.8033   13.0547 C.3     1  UNL1        0.1206
     26 C          62.8327   83.8161   12.0966 C.ar    1  UNL1        0.0008
     27 C          63.5521   84.3000   10.8726 C.ar    1  UNL1        0.0181
     28 C          64.1500   83.3128    9.9145 C.ar    1  UNL1        0.0986
     29 N          64.0284   81.8416   10.1805 N.ar    1  UNL1       -0.2423
     30 C          63.3090   81.3577   11.4045 C.ar    1  UNL1        0.0986
     31 C          62.7111   82.3449   12.3626 C.ar    1  UNL1        0.0181
@<TRIPOS>BOND
     1    22    23    1
     2    23    24    1
     3    23    16    1
     4    16    17    1
     5    17    18    1
     6    18    19    1
     7    19    15    1
     8    15     1    1
     9     1     2   ar
    10     2     3   ar
    11     3     4   ar
    12     4     5   ar
    13     5     6   ar
    14     5     7   ar
    15     7     8   ar
    16     8     9   ar
    17     9    10    1
    18    10    11    1
    19    11    12    1
    20    12    25    1
    21    25    26    1
    22    26    27   ar
    23    27    28   ar
    24    28    29   ar
    25    29    30   ar
    26    30    31   ar
    27    12    13   am
    28    13    14    2
    29    19    20    1
    30    20    21    1
    31    21    16    1
    32     6     1   ar
    33    13     8    1
    34     9     4   ar
    35    31    26   ar
@<TRIPOS>MOLECULE
*****
 31 35 0 0 0
SMALL
GASTEIGER

@<TRIPOS>ATOM
      1 C          63.2644   84.6438   14.8228 C.ar    1  UNL1        0.1385
      2 C          64.0445   85.4491   15.8191 C.ar    1  UNL1        0.0384
      3 C          64.3921   86.8776   15.5214 C.ar    1  UNL1        0.0203
      4 C          63.9594   87.5007   14.2273 C.ar    1  UNL1        0.0602
      5 C          63.1792   86.6953   13.2310 C.ar    1  UNL1        0.0204
      6 C          62.8317   85.2669   13.5288 C.ar    1  UNL1        0.0384
      7 C          62.8914   87.5730   12.0491 C.ar    1  UNL1        0.0234
      8 C          63.4938   88.9208   12.3150 C.ar    1  UNL1        0.1143
      9 N          64.1538   88.8761   13.6612 N.ar    1  UNL1       -0.3219
     10 C          64.8466   90.0936   14.1975 C.3     1  UNL1        0.1276
     11 C          64.8793   91.3557   13.3877 C.3     1  UNL1        0.1185
     12 N          64.2192   91.4004   12.0415 N.am    1  UNL1       -0.2688
     13 C          63.5264   90.1829   11.5051 C.2     1  UNL1        0.2652
     14 O          62.8663   90.2275   10.1588 O.2     1  UNL1       -0.2683
     15 O          62.9168   83.2152   15.1205 O.3     1  UNL1       -0.4791
     16 N          62.7883   80.1900   11.7917 N.3     1  UNL1       -0.2737
     17 C          63.5278   81.4814   11.6034 C.3     1  UNL1        0.0758
     18 C          63.5706   82.4898   12.7130 C.3     1  UNL1        0.0609
     19 C          62.8740   82.2068   14.0109 C.3     1  UNL1        0.1687
     20 C          62.1345   80.9154   14.1992 C.3     1  UNL1        0.0609
     21 C          62.0917   79.9070   13.0896 C.3     1  UNL1        0.0758
     22 C          62.7127   79.6389    9.2539 C.3     1  UNL1        0.0173
     23 C          62.7455   79.1816   10.6821 C.3     1  UNL1        0.0576
     24 C          62.7356   77.7158   11.0006 C.3     1  UNL1        0.0173
     25 C          64.2519   92.6626   11.2316 C.3     1  UNL1        0.1206
     26 C          65.5589   93.1918   10.7200 C.ar    1  UNL1        0.0008
     27 C          66.6719   92.2440   10.3838 C.ar    1  UNL1        0.0181
     28 C          67.9789   92.7732    9.8723 C.ar    1  UNL1        0.0986
     29 N          68.1729   94.2502    9.6969 N.ar    1  UNL1       -0.2423
     30 C          67.0599   95.1980   10.0330 C.ar    1  UNL1        0.0986
     31 C          65.7529   94.6688   10.5446 C.ar    1  UNL1        0.0181
@<TRIPOS>BOND
     1    22    23    1
     2    23    24    1
     3    23    16    1
     4    16    17    1
     5    17    18    1
     6    18    19    1
     7    19    15    1
     8    15     1    1
     9     1     2   ar
    10     2     3   ar
    11     3     4   ar
    12     4     5   ar
    13     5     6   ar
    14     5     7   ar
    15     7     8   ar
    16     8     9   ar
    17     9    10    1
    18    10    11    1
    19    11    12    1
    20    12    25    1
    21    25    26    1
    22    26    27   ar
    23    27    28   ar
    24    28    29   ar
    25    29    30   ar
    26    30    31   ar
    27    12    13   am
    28    13    14    2
    29    19    20    1
    30    20    21    1
    31    21    16    1
    32     6     1   ar
    33    13     8    1
    34     9     4   ar
    35    31    26   ar
@<TRIPOS>MOLECULE
*****
 31 35 0 0 0
SMALL
GASTEIGER

@<TRIPOS>ATOM
      1 C          63.0215   85.0176   13.9508 C.ar    1  UNL1        0.1385
      2 C          62.4157   85.4347   12.6436 C.ar    1  UNL1        0.0384
      3 C          62.6377   86.8240   12.1234 C.ar    1  UNL1        0.0203
      4 C          63.4654   87.7962   12.9105 C.ar    1  UNL1        0.0602
      5 C          64.0712   87.3791   14.2178 C.ar    1  UNL1        0.0204
      6 C          63.8493   85.9899   14.7380 C.ar    1  UNL1        0.0384
      7 C          64.8348   88.5470   14.7683 C.ar    1  UNL1        0.0234
      8 C          64.7009   89.6858   13.8013 C.ar    1  UNL1        0.1143
      9 N          63.8546   89.2218   12.6531 N.ar    1  UNL1       -0.3219
     10 C          63.5477   90.1573   11.5216 C.3     1  UNL1        0.1276
     11 C          64.0871   91.5569   11.5382 C.3     1  UNL1        0.1185
     12 N          64.9334   92.0209   12.6864 N.am    1  UNL1       -0.2688
     13 C          65.2403   91.0853   13.8180 C.2     1  UNL1        0.2652
     14 O          66.0867   91.5493   14.9662 O.2     1  UNL1       -0.2683
     15 O          62.7996   83.6283   14.4710 O.3     1  UNL1       -0.4791
     16 N          62.7653   80.1400   11.6284 N.3     1  UNL1       -0.2737
     17 C          63.2939   81.4695   11.1778 C.3     1  UNL1        0.0758
     18 C          63.3053   82.6323   12.1254 C.3     1  UNL1        0.0609
     19 C          62.7882   82.4656   13.5235 C.3     1  UNL1        0.1687
     20 C          62.2596   81.1360   13.9740 C.3     1  UNL1        0.0609
     21 C          62.2482   79.9733   13.0265 C.3     1  UNL1        0.0758
     22 C          62.6517   77.5781   11.2117 C.3     1  UNL1        0.0173
     23 C          62.7539   78.9773   10.6808 C.3     1  UNL1        0.0576
     24 C          62.8447   79.2137    9.2023 C.3     1  UNL1        0.0173
     25 C          65.4728   93.4205   12.7030 C.3     1  UNL1        0.1206
     26 C          66.2079   93.9552   11.5098 C.ar    1  UNL1        0.0008
     27 C          66.1688   95.4224   11.2003 C.ar    1  UNL1        0.0181
     28 C          66.9039   95.9571   10.0071 C.ar    1  UNL1        0.0986
     29 N          67.6781   95.0245    9.1234 N.ar    1  UNL1       -0.2423
     30 C          67.7172   93.5573    9.4329 C.ar    1  UNL1        0.0986
     31 C          66.9821   93.0227   10.6261 C.ar    1  UNL1        0.0181
@<TRIPOS>BOND
     1    22    23    1
     2    23    24    1
     3    23    16    1
     4    16    17    1
     5    17    18    1
     6    18    19    1
     7    19    15    1
     8    15     1    1
     9     1     2   ar
    10     2     3   ar
    11     3     4   ar
    12     4     5   ar
    13     5     6   ar
    14     5     7   ar
    15     7     8   ar
    16     8     9   ar
    17     9    10    1
    18    10    11    1
    19    11    12    1
    20    12    25    1
    21    25    26    1
    22    26    27   ar
    23    27    28   ar
    24    28    29   ar
    25    29    30   ar
    26    30    31   ar
    27    12    13   am
    28    13    14    2
    29    19    20    1
    30    20    21    1
    31    21    16    1
    32     6     1   ar
    33    13     8    1
    34     9     4   ar
    35    31    26   ar
@<TRIPOS>MOLECULE
*****
 31 35 0 0 0
SMALL
GASTEIGER

@<TRIPOS>ATOM
      1 C          59.8206   88.9277    8.0550 C.ar    1  UNL1        0.1385
      2 C          60.1494   87.5459    8.5371 C.ar    1  UNL1        0.0384
      3 C          61.0438   87.3598    9.7267 C.ar    1  UNL1        0.0203
      4 C          61.6094   88.5554   10.4342 C.ar    1  UNL1        0.0602
      5 C          61.2806   89.9372    9.9521 C.ar    1  UNL1        0.0204
      6 C          60.3861   90.1233    8.7625 C.ar    1  UNL1        0.0384
      7 C          61.9807   90.9184   10.8449 C.ar    1  UNL1        0.0234
      8 C          62.7422   90.1431   11.8788 C.ar    1  UNL1        0.1143
      9 N          62.5128   88.6826   11.6250 N.ar    1  UNL1       -0.3219
     10 C          63.1560   87.6574   12.5109 C.3     1  UNL1        0.1276
     11 C          64.0287   88.0925   13.6507 C.3     1  UNL1        0.1185
     12 N          64.2582   89.5530   13.9044 N.am    1  UNL1       -0.2688
     13 C          63.6149   90.5783   13.0185 C.2     1  UNL1        0.2652
     14 O          63.8443   92.0388   13.2723 O.2     1  UNL1       -0.2683
     15 O          58.9261   89.1139    6.8653 O.3     1  UNL1       -0.4791
     16 N          59.9387   92.1992    3.7499 N.3     1  UNL1       -0.2737
     17 C          58.5201   92.0338    4.2083 C.3     1  UNL1        0.0758
     18 C          58.1825   91.0054    5.2468 C.3     1  UNL1        0.0609
     19 C          59.2636   90.1423    5.8268 C.3     1  UNL1        0.1687
     20 C          60.6823   90.3077    5.3684 C.3     1  UNL1        0.0609
     21 C          61.0198   91.3361    4.3299 C.3     1  UNL1        0.0758
     22 C          60.8018   92.7983    1.3738 C.3     1  UNL1        0.0173
     23 C          60.2763   93.2276    2.7115 C.3     1  UNL1        0.0576
     24 C          60.0882   94.6854    3.0107 C.3     1  UNL1        0.0173
     25 C          65.1309   89.9882   15.0442 C.3     1  UNL1        0.1206
     26 C          66.1167   91.1021   14.8511 C.ar    1  UNL1        0.0008
     27 C          67.0883   91.0543   13.7093 C.ar    1  UNL1        0.0181
     28 C          68.0741   92.1683   13.5161 C.ar    1  UNL1        0.0986
     29 N          68.0883   93.3300   14.4648 N.ar    1  UNL1       -0.2423
     30 C          67.1167   93.3779   15.6066 C.ar    1  UNL1        0.0986
     31 C          66.1309   92.2639   15.7997 C.ar    1  UNL1        0.0181
@<TRIPOS>BOND
     1    22    23    1
     2    23    24    1
     3    23    16    1
     4    16    17    1
     5    17    18    1
     6    18    19    1
     7    19    15    1
     8    15     1    1
     9     1     2   ar
    10     2     3   ar
    11     3     4   ar
    12     4     5   ar
    13     5     6   ar
    14     5     7   ar
    15     7     8   ar
    16     8     9   ar
    17     9    10    1
    18    10    11    1
    19    11    12    1
    20    12    25    1
    21    25    26    1
    22    26    27   ar
    23    27    28   ar
    24    28    29   ar
    25    29    30   ar
    26    30    31   ar
    27    12    13   am
    28    13    14    2
    29    19    20    1
    30    20    21    1
    31    21    16    1
    32     6     1   ar
    33    13     8    1
    34     9     4   ar
    35    31    26   ar
@<TRIPOS>MOLECULE
*****
 31 35 0 0 0
SMALL
GASTEIGER

@<TRIPOS>ATOM
      1 C          62.7756   94.7230   -0.1959 C.ar    1  UNL1        0.1385
      2 C          63.8397   93.8634    0.4194 C.ar    1  UNL1        0.0384
      3 C          63.5026   92.9597    1.5681 C.ar    1  UNL1        0.0203
      4 C          62.1014   92.9156    2.1015 C.ar    1  UNL1        0.0602
      5 C          61.0372   93.7752    1.4862 C.ar    1  UNL1        0.0204
      6 C          61.3743   94.6789    0.3375 C.ar    1  UNL1        0.0384
      7 C          59.7539   93.5203    2.2197 C.ar    1  UNL1        0.0234
      8 C          60.0249   92.5032    3.2884 C.ar    1  UNL1        0.1143
      9 N          61.4757   92.1294    3.2154 N.ar    1  UNL1       -0.3219
     10 C          62.0396   91.1216    4.1725 C.3     1  UNL1        0.1276
     11 C          61.1528   90.4875    5.2027 C.3     1  UNL1        0.1185
     12 N          59.7019   90.8612    5.2757 N.am    1  UNL1       -0.2688
     13 C          59.1380   91.8691    4.3185 C.2     1  UNL1        0.2652
     14 O          57.6871   92.2429    4.3916 O.2     1  UNL1       -0.2683
     15 O          63.1126   95.6268   -1.3447 O.3     1  UNL1       -0.4791
     16 N          64.9259   93.9205   -5.0931 N.3     1  UNL1       -0.2737
     17 C          64.1439   93.0357   -4.1683 C.3     1  UNL1        0.0758
     18 C          63.5395   93.6044   -2.9187 C.3     1  UNL1        0.0609
     19 C          63.7171   95.0581   -2.5942 C.3     1  UNL1        0.1687
     20 C          64.4991   95.9430   -3.5191 C.3     1  UNL1        0.0609
     21 C          65.1035   95.3742   -4.7685 C.3     1  UNL1        0.0758
     22 C          65.1553   91.9722   -6.7964 C.3     1  UNL1        0.0173
     23 C          65.5304   93.3518   -6.3426 C.3     1  UNL1        0.0576
     24 C          66.5099   94.1627   -7.1383 C.3     1  UNL1        0.0173
     25 C          58.8150   90.2271    6.3059 C.3     1  UNL1        0.1206
     26 C          59.3720   89.1973    7.2436 C.ar    1  UNL1        0.0008
     27 C          59.1301   87.7395    6.9860 C.ar    1  UNL1        0.0181
     28 C          59.6871   86.7097    7.9237 C.ar    1  UNL1        0.0986
     29 N          60.4860   87.1377    9.1189 N.ar    1  UNL1       -0.2423
     30 C          60.7278   88.5954    9.3765 C.ar    1  UNL1        0.0986
     31 C          60.1708   89.6253    8.4388 C.ar    1  UNL1        0.0181
@<TRIPOS>BOND
     1    22    23    1
     2    23    24    1
     3    23    16    1
     4    16    17    1
     5    17    18    1
     6    18    19    1
     7    19    15    1
     8    15     1    1
     9     1     2   ar
    10     2     3   ar
    11     3     4   ar
    12     4     5   ar
    13     5     6   ar
    14     5     7   ar
    15     7     8   ar
    16     8     9   ar
    17     9    10    1
    18    10    11    1
    19    11    12    1
    20    12    25    1
    21    25    26    1
    22    26    27   ar
    23    27    28   ar
    24    28    29   ar
    25    29    30   ar
    26    30    31   ar
    27    12    13   am
    28    13    14    2
    29    19    20    1
    30    20    21    1
    31    21    16    1
    32     6     1   ar
    33    13     8    1
    34     9     4   ar
    35    31    26   ar
