@<TRIPOS>MOLECULE
*****
 43 45 0 0 0
SMALL
GASTEIGER

@<TRIPOS>ATOM
      1 C          62.1673   85.5531    9.8258 C.3     1  UNL1        0.0920
      2 C          61.3601   85.5184    8.5620 C.3     1  UNL1        0.2582
      3 S          60.1929   86.4451    8.3919 S.O     1  UNL1        0.0319
      4 O          59.3856   86.4104    7.1281 O.co2   1  UNL1       -0.6812
      5 C          59.8330   87.4066    9.4856 C.3     1  UNL1        0.2736
      6 C          60.6403   87.4413   10.7493 C.3     1  UNL1        0.1415
      7 C          61.8074   86.5146   10.9194 C.3     1  UNL1        0.1353
      8 O          62.6147   86.5493   12.1833 O.3     1  UNL1       -0.3827
      9 H          62.2512   87.2214   12.7808 H       1  UNL1        0.2104
     10 N          60.2804   88.4027   11.8431 N.3     1  UNL1       -0.2900
     11 H          60.8553   88.1597   12.6498 H       1  UNL1        0.1237
     12 C          60.4395   89.8785   11.6267 C.3     1  UNL1        0.0770
     13 C          59.2285   90.7604   11.5514 C.3     1  UNL1        0.0220
     14 C          61.8098   90.4724   11.4857 C.ar    1  UNL1       -0.0083
     15 C          62.2634   91.0052   10.1590 C.ar    1  UNL1       -0.0030
     16 C          63.6336   91.5991   10.0180 C.ar    1  UNL1       -0.0006
     17 C          64.5502   91.6601   11.2038 C.ar    1  UNL1       -0.0043
     18 C          64.0965   91.1273   12.5306 C.ar    1  UNL1       -0.0231
     19 C          62.7263   90.5334   12.6716 C.ar    1  UNL1       -0.0073
     20 C          65.0131   91.1883   13.7165 C.3     1  UNL1        0.0189
     21 C          64.3246   89.9952   14.3101 C.3     1  UNL1        0.0044
     22 C          65.7016   92.3814   13.1228 C.3     1  UNL1        0.0044
     23 C          65.9297   91.2493   14.9023 C.3     1  UNL1        0.0044
     24 C          63.3345   84.6264    9.9959 C.3     1  UNL1        0.0342
     25 C          63.4123   82.8146   13.5260 C.ar    1  UNL1        0.1535
     26 C          63.4573   83.8943   12.4857 C.ar    1  UNL1        0.0341
     27 C          63.2894   83.5467   11.0362 C.ar    1  UNL1       -0.0166
     28 C          63.0765   82.1194   10.6270 C.ar    1  UNL1        0.0268
     29 C          63.0314   81.0397   11.6673 C.ar    1  UNL1        0.1556
     30 F          62.8184   79.6123   11.2581 F       1  UNL1       -0.2028
     31 C          63.1993   81.3873   13.1168 C.ar    1  UNL1        0.1037
     32 N          63.1543   80.3075   14.1571 N.pl3   1  UNL1       -0.3529
     33 H          63.0145   79.3708   13.8885 H       1  UNL1        0.1425
     34 H          63.2645   80.5357   15.1084 H       1  UNL1        0.1425
     35 O          63.5802   83.1622   14.9754 O.3     1  UNL1       -0.4665
     36 C          63.5272   84.5956   15.4140 C.3     1  UNL1        0.2891
     37 C          64.6844   85.5085   15.1353 C.3     1  UNL1        0.4366
     38 F          65.8416   86.4214   14.8567 F       1  UNL1       -0.1663
     39 F          65.6023   84.3241   15.0671 F       1  UNL1       -0.1663
     40 F          63.7665   86.6929   15.2036 F       1  UNL1       -0.1663
     41 C          62.3170   85.1163   16.1311 C.3     1  UNL1        0.1945
     42 C          62.6766   86.7744   18.0988 C.3     1  UNL1        0.1743
     43 O          62.3784   85.3898   17.6048 O.3     1  UNL1       -0.3469
@<TRIPOS>UNITY_ATOM_ATTR
3 1
charge 1
4 1
charge -1
@<TRIPOS>BOND
     1    42    43    1
     2    43    41    1
     3    36    41    1
     4    36    35    1
     5    35    25    1
     6    25    26   ar
     7    26    27   ar
     8    27    24    1
     9     1    24    1
    10     1     2    1
    11     2     3    1
    12     3     4    2
    13     3     5    1
    14     5     6    1
    15     6    10    1
    16    10    12    1
    17    12    13    1
    18    12    14    1
    19    14    15   ar
    20    15    16   ar
    21    16    17   ar
    22    17    18   ar
    23    18    20    1
    24    20    21    1
    25    20    22    1
    26    20    23    1
    27    18    19   ar
    28     6     7    1
    29     7     8    1
    30    27    28   ar
    31    28    29   ar
    32    29    30    1
    33    29    31   ar
    34    31    32    1
    35    36    37    1
    36    37    38    1
    37    37    39    1
    38    37    40    1
    39    31    25   ar
    40     7     1    1
    41    19    14   ar
    42    10    11    1
    43     8     9    1
    44    32    33    1
    45    32    34    1
@<TRIPOS>MOLECULE
*****
 43 45 0 0 0
SMALL
GASTEIGER

@<TRIPOS>ATOM
      1 C          61.8483   86.3243    9.7490 C.3     1  UNL1        0.0920
      2 C          60.7207   86.2344    8.7638 C.3     1  UNL1        0.2582
      3 S          59.7705   87.3840    8.6045 S.O     1  UNL1        0.0319
      4 O          58.6430   87.2941    7.6194 O.co2   1  UNL1       -0.6812
      5 C          59.9479   88.6236    9.4304 C.3     1  UNL1        0.2736
      6 C          61.0754   88.7135   10.4155 C.3     1  UNL1        0.1415
      7 C          62.0256   87.5638   10.5748 C.3     1  UNL1        0.1353
      8 O          63.1532   87.6538   11.5600 O.3     1  UNL1       -0.3827
      9 H          63.1242   88.5141   12.0070 H       1  UNL1        0.2104
     10 N          61.2528   89.9531   11.2414 N.3     1  UNL1       -0.2900
     11 H          61.0614   89.6923   12.2088 H       1  UNL1        0.1237
     12 C          62.5683   90.6737   11.2394 C.3     1  UNL1        0.0770
     13 C          63.0626   91.3289    9.9839 C.3     1  UNL1        0.0220
     14 C          63.3896   90.7392   12.4930 C.ar    1  UNL1       -0.0083
     15 C          62.8310   90.2176   13.7836 C.ar    1  UNL1       -0.0030
     16 C          63.6522   90.2830   15.0372 C.ar    1  UNL1       -0.0006
     17 C          65.0321   90.8701   15.0000 C.ar    1  UNL1       -0.0043
     18 C          65.5906   91.3918   13.7093 C.ar    1  UNL1       -0.0231
     19 C          64.7694   91.3263   12.4558 C.ar    1  UNL1       -0.0073
     20 C          66.9705   91.9789   13.6721 C.3     1  UNL1        0.0189
     21 C          66.7339   92.4459   12.2664 C.3     1  UNL1        0.0044
     22 C          67.2071   91.5119   15.0778 C.3     1  UNL1        0.0044
     23 C          68.3503   92.5660   13.6349 C.3     1  UNL1        0.0044
     24 C          62.7985   85.1746    9.9083 C.3     1  UNL1        0.0342
     25 C          62.3112   83.9459   13.6503 C.ar    1  UNL1        0.1535
     26 C          62.4206   84.8496   12.4581 C.ar    1  UNL1        0.0341
     27 C          62.6892   84.2709   11.1005 C.ar    1  UNL1       -0.0166
     28 C          62.8485   82.7886   10.9352 C.ar    1  UNL1        0.0268
     29 C          62.7392   81.8850   12.1274 C.ar    1  UNL1        0.1556
     30 F          62.8985   80.4026   11.9621 F       1  UNL1       -0.2028
     31 C          62.4706   82.4637   13.4850 C.ar    1  UNL1        0.1037
     32 N          62.3612   81.5599   14.6772 N.pl3   1  UNL1       -0.3529
     33 H          62.4658   80.5870   14.5687 H       1  UNL1        0.1425
     34 H          62.1849   81.9397   15.5683 H       1  UNL1        0.1425
     35 O          62.0426   84.5246   15.0079 O.3     1  UNL1       -0.4665
     36 C          63.1610   85.1396   15.7958 C.3     1  UNL1        0.2891
     37 C          64.5423   85.2019   15.2142 C.3     1  UNL1        0.4366
     38 F          65.9235   85.2644   14.6326 F       1  UNL1       -0.1663
     39 F          64.7641   83.7660   15.5867 F       1  UNL1       -0.1663
     40 F          64.3206   86.6379   14.8417 F       1  UNL1       -0.1663
     41 C          62.8983   85.6921   17.1653 C.3     1  UNL1        0.1945
     42 C          62.9694   88.2853   17.3088 C.3     1  UNL1        0.1743
     43 O          62.1887   87.0045   17.3211 O.3     1  UNL1       -0.3469
@<TRIPOS>UNITY_ATOM_ATTR
3 1
charge 1
4 1
charge -1
@<TRIPOS>BOND
     1    42    43    1
     2    43    41    1
     3    36    41    1
     4    36    35    1
     5    35    25    1
     6    25    26   ar
     7    26    27   ar
     8    27    24    1
     9     1    24    1
    10     1     2    1
    11     2     3    1
    12     3     4    2
    13     3     5    1
    14     5     6    1
    15     6    10    1
    16    10    12    1
    17    12    13    1
    18    12    14    1
    19    14    15   ar
    20    15    16   ar
    21    16    17   ar
    22    17    18   ar
    23    18    20    1
    24    20    21    1
    25    20    22    1
    26    20    23    1
    27    18    19   ar
    28     6     7    1
    29     7     8    1
    30    27    28   ar
    31    28    29   ar
    32    29    30    1
    33    29    31   ar
    34    31    32    1
    35    36    37    1
    36    37    38    1
    37    37    39    1
    38    37    40    1
    39    31    25   ar
    40     7     1    1
    41    19    14   ar
    42    10    11    1
    43     8     9    1
    44    32    33    1
    45    32    34    1
@<TRIPOS>MOLECULE
*****
 43 45 0 0 0
SMALL
GASTEIGER

@<TRIPOS>ATOM
      1 C          61.7600   90.0363   10.6290 C.3     1  UNL1        0.0920
      2 C          60.6244   90.3706   11.5502 C.3     1  UNL1        0.2582
      3 S          59.5875   89.3347   11.8692 S.O     1  UNL1        0.0319
      4 O          58.4519   89.6689   12.7904 O.co2   1  UNL1       -0.6812
      5 C          59.6864   87.9644   11.2669 C.3     1  UNL1        0.2736
      6 C          60.8220   87.6301   10.3458 C.3     1  UNL1        0.1415
      7 C          61.8588   88.6661   10.0268 C.3     1  UNL1        0.1353
      8 O          62.9945   88.3318    9.1055 O.3     1  UNL1       -0.3827
      9 H          62.9090   87.4128    8.8073 H       1  UNL1        0.2104
     10 N          60.9208   86.2599    9.7435 N.3     1  UNL1       -0.2900
     11 H          60.7578   86.3659    8.7422 H       1  UNL1        0.1237
     12 C          62.1828   85.4633    9.8949 C.3     1  UNL1        0.0770
     13 C          63.0849   85.2560    8.7146 C.3     1  UNL1        0.0220
     14 C          62.5426   84.8742   11.2266 C.ar    1  UNL1       -0.0083
     15 C          63.1051   85.7498   12.3068 C.ar    1  UNL1       -0.0030
     16 C          63.4650   85.1607   13.6386 C.ar    1  UNL1       -0.0006
     17 C          63.2622   83.6959   13.8901 C.ar    1  UNL1       -0.0043
     18 C          62.6997   82.8202   12.8098 C.ar    1  UNL1       -0.0231
     19 C          62.3399   83.4094   11.4781 C.ar    1  UNL1       -0.0073
     20 C          62.4970   81.3554   13.0613 C.3     1  UNL1        0.0189
     21 C          61.9230   81.6667   14.4117 C.3     1  UNL1        0.0044
     22 C          63.0710   81.0441   11.7109 C.3     1  UNL1        0.0044
     23 C          62.2943   79.8906   13.3128 C.3     1  UNL1        0.0044
     24 C          62.7968   91.0723   10.3100 C.3     1  UNL1        0.0342
     25 C          66.0987   92.5887   11.9064 C.ar    1  UNL1        0.1535
     26 C          65.0135   92.2842   10.9167 C.ar    1  UNL1        0.0341
     27 C          63.8821   91.3768   11.2998 C.ar    1  UNL1       -0.0166
     28 C          63.8360   90.7740   12.6725 C.ar    1  UNL1        0.0268
     29 C          64.9212   91.0785   13.6622 C.ar    1  UNL1        0.1556
     30 F          64.8751   90.4757   15.0350 F       1  UNL1       -0.2028
     31 C          66.0526   91.9859   13.2791 C.ar    1  UNL1        0.1037
     32 N          67.1379   92.2904   14.2688 N.pl3   1  UNL1       -0.3529
     33 H          67.1076   91.8947   15.1698 H       1  UNL1        0.1425
     34 H          67.8805   92.8859   14.0174 H       1  UNL1        0.1425
     35 O          67.2301   93.4960   11.5233 O.3     1  UNL1       -0.4665
     36 C          67.4224   93.8906   10.0890 C.3     1  UNL1        0.2891
     37 C          68.2299   93.0192    9.1732 C.3     1  UNL1        0.4366
     38 F          69.0374   92.1478    8.2574 F       1  UNL1       -0.1663
     39 F          68.6162   92.1545   10.3364 F       1  UNL1       -0.1663
     40 F          67.8437   93.8838    8.0099 F       1  UNL1       -0.1663
     41 C          66.8072   95.1565    9.5704 C.3     1  UNL1        0.1945
     42 C          65.9804   96.8194   11.3874 C.3     1  UNL1        0.1743
     43 O          66.9750   96.4384   10.3312 O.3     1  UNL1       -0.3469
@<TRIPOS>UNITY_ATOM_ATTR
3 1
charge 1
4 1
charge -1
@<TRIPOS>BOND
     1    42    43    1
     2    43    41    1
     3    36    41    1
     4    36    35    1
     5    35    25    1
     6    25    26   ar
     7    26    27   ar
     8    27    24    1
     9     1    24    1
    10     1     2    1
    11     2     3    1
    12     3     4    2
    13     3     5    1
    14     5     6    1
    15     6    10    1
    16    10    12    1
    17    12    13    1
    18    12    14    1
    19    14    15   ar
    20    15    16   ar
    21    16    17   ar
    22    17    18   ar
    23    18    20    1
    24    20    21    1
    25    20    22    1
    26    20    23    1
    27    18    19   ar
    28     6     7    1
    29     7     8    1
    30    27    28   ar
    31    28    29   ar
    32    29    30    1
    33    29    31   ar
    34    31    32    1
    35    36    37    1
    36    37    38    1
    37    37    39    1
    38    37    40    1
    39    31    25   ar
    40     7     1    1
    41    19    14   ar
    42    10    11    1
    43     8     9    1
    44    32    33    1
    45    32    34    1
@<TRIPOS>MOLECULE
*****
 43 45 0 0 0
SMALL
GASTEIGER

@<TRIPOS>ATOM
      1 C          61.0738   89.7048   10.5303 C.3     1  UNL1        0.0920
      2 C          60.4771   90.1236    9.2193 C.3     1  UNL1        0.2582
      3 S          60.0964   89.0876    8.2035 S.O     1  UNL1        0.0319
      4 O          59.4997   89.5064    6.8926 O.co2   1  UNL1       -0.6812
      5 C          60.3126   87.6329    8.4986 C.3     1  UNL1        0.2736
      6 C          60.9093   87.2141    9.8095 C.3     1  UNL1        0.1415
      7 C          61.2899   88.2501   10.8253 C.3     1  UNL1        0.1353
      8 O          61.8867   87.8313   12.1363 O.3     1  UNL1       -0.3827
      9 H          61.9574   86.8643   12.1651 H       1  UNL1        0.2104
     10 N          61.1255   85.7594   10.1046 N.3     1  UNL1       -0.2900
     11 H          60.4964   85.2383    9.4937 H       1  UNL1        0.1237
     12 C          62.4884   85.1551    9.9397 C.3     1  UNL1        0.0770
     13 C          63.1871   85.2310    8.6145 C.3     1  UNL1        0.0220
     14 C          63.1527   84.4749   11.0999 C.ar    1  UNL1       -0.0083
     15 C          63.9312   83.2113   10.8831 C.ar    1  UNL1       -0.0030
     16 C          64.5955   82.5311   12.0434 C.ar    1  UNL1       -0.0006
     17 C          64.4812   83.1146   13.4205 C.ar    1  UNL1       -0.0043
     18 C          63.7026   84.3783   13.6373 C.ar    1  UNL1       -0.0231
     19 C          63.0384   85.0584   12.4771 C.ar    1  UNL1       -0.0073
     20 C          63.5883   84.9618   15.0144 C.3     1  UNL1        0.0189
     21 C          62.6622   83.8497   15.4088 C.3     1  UNL1        0.0044
     22 C          64.5144   86.0740   14.6201 C.3     1  UNL1        0.0044
     23 C          63.4739   85.5454   16.3915 C.3     1  UNL1        0.0044
     24 C          61.4545   90.7407   11.5461 C.3     1  UNL1        0.0342
     25 C          65.0361   91.2762   13.1694 C.ar    1  UNL1        0.1535
     26 C          63.5991   90.8784   13.0061 C.ar    1  UNL1        0.0341
     27 C          62.8916   91.1386   11.7093 C.ar    1  UNL1       -0.0166
     28 C          63.6210   91.7967   10.5758 C.ar    1  UNL1        0.0268
     29 C          65.0580   92.1945   10.7391 C.ar    1  UNL1        0.1556
     30 F          65.7875   92.8526    9.6056 F       1  UNL1       -0.2028
     31 C          65.7656   91.9343   12.0359 C.ar    1  UNL1        0.1037
     32 N          67.2026   92.3322   12.1991 N.pl3   1  UNL1       -0.3529
     33 H          67.6814   92.7641   11.4551 H       1  UNL1        0.1425
     34 H          67.6671   92.1614   13.0502 H       1  UNL1        0.1425
     35 O          65.7437   91.0160   14.4662 O.3     1  UNL1       -0.4665
     36 C          65.8086   92.0880   15.5134 C.3     1  UNL1        0.2891
     37 C          66.9957   93.0029   15.5776 C.3     1  UNL1        0.4366
     38 F          68.1826   93.9177   15.6419 F       1  UNL1       -0.1663
     39 F          67.6883   92.0397   16.4955 F       1  UNL1       -0.1663
     40 F          66.3030   93.9660   14.6598 F       1  UNL1       -0.1663
     41 C          64.6865   92.2451   16.4964 C.3     1  UNL1        0.1945
     42 C          63.3767   90.0022   16.5588 C.3     1  UNL1        0.1743
     43 O          63.4102   91.4804   16.3061 O.3     1  UNL1       -0.3469
@<TRIPOS>UNITY_ATOM_ATTR
3 1
charge 1
4 1
charge -1
@<TRIPOS>BOND
     1    42    43    1
     2    43    41    1
     3    36    41    1
     4    36    35    1
     5    35    25    1
     6    25    26   ar
     7    26    27   ar
     8    27    24    1
     9     1    24    1
    10     1     2    1
    11     2     3    1
    12     3     4    2
    13     3     5    1
    14     5     6    1
    15     6    10    1
    16    10    12    1
    17    12    13    1
    18    12    14    1
    19    14    15   ar
    20    15    16   ar
    21    16    17   ar
    22    17    18   ar
    23    18    20    1
    24    20    21    1
    25    20    22    1
    26    20    23    1
    27    18    19   ar
    28     6     7    1
    29     7     8    1
    30    27    28   ar
    31    28    29   ar
    32    29    30    1
    33    29    31   ar
    34    31    32    1
    35    36    37    1
    36    37    38    1
    37    37    39    1
    38    37    40    1
    39    31    25   ar
    40     7     1    1
    41    19    14   ar
    42    10    11    1
    43     8     9    1
    44    32    33    1
    45    32    34    1
@<TRIPOS>MOLECULE
*****
 43 45 0 0 0
SMALL
GASTEIGER

@<TRIPOS>ATOM
      1 C          60.6712   89.4736   10.0943 C.3     1  UNL1        0.0920
      2 C          60.0623   89.8776    8.7843 C.3     1  UNL1        0.2582
      3 S          59.7824   88.8418    7.7362 S.O     1  UNL1        0.0319
      4 O          59.1734   89.2458    6.4262 O.co2   1  UNL1       -0.6812
      5 C          60.1114   87.4019    7.9980 C.3     1  UNL1        0.2736
      6 C          60.7203   86.9979    9.3079 C.3     1  UNL1        0.1415
      7 C          61.0002   88.0337   10.3561 C.3     1  UNL1        0.1353
      8 O          61.6092   87.6297   11.6661 O.3     1  UNL1       -0.3827
      9 H          61.7577   86.6711   11.6716 H       1  UNL1        0.2104
     10 N          61.0493   85.5580    9.5697 N.3     1  UNL1       -0.2900
     11 H          60.4952   85.0056    8.9153 H       1  UNL1        0.1237
     12 C          62.4656   85.0785    9.4501 C.3     1  UNL1        0.0770
     13 C          63.2772   85.4316    8.2391 C.3     1  UNL1        0.0220
     14 C          63.0703   84.2460   10.5417 C.ar    1  UNL1       -0.0083
     15 C          63.9736   83.0991   10.1972 C.ar    1  UNL1       -0.0030
     16 C          64.5783   82.2666   11.2887 C.ar    1  UNL1       -0.0006
     17 C          64.2797   82.5811   12.7247 C.ar    1  UNL1       -0.0043
     18 C          63.3764   83.7281   13.0691 C.ar    1  UNL1       -0.0231
     19 C          62.7717   84.5605   11.9776 C.ar    1  UNL1       -0.0073
     20 C          63.0778   84.0425   14.5050 C.3     1  UNL1        0.0189
     21 C          63.8769   85.3071   14.3943 C.3     1  UNL1        0.0044
     22 C          62.2787   82.7779   14.6158 C.3     1  UNL1        0.0044
     23 C          62.7792   84.3570   15.9410 C.3     1  UNL1        0.0044
     24 C          60.9511   90.5094   11.1425 C.3     1  UNL1        0.0342
     25 C          64.4070   90.8771   13.0587 C.ar    1  UNL1        0.1535
     26 C          62.9923   90.4860   12.7498 C.ar    1  UNL1        0.0341
     27 C          62.3660   90.9006   11.4514 C.ar    1  UNL1       -0.0166
     28 C          63.1544   91.7063   10.4619 C.ar    1  UNL1        0.0268
     29 C          64.5691   92.0975   10.7708 C.ar    1  UNL1        0.1556
     30 F          65.3576   92.9032    9.7813 F       1  UNL1       -0.2028
     31 C          65.1954   91.6828   12.0692 C.ar    1  UNL1        0.1037
     32 N          66.6103   92.0740   12.3781 N.pl3   1  UNL1       -0.3529
     33 H          67.1277   92.6029   11.7287 H       1  UNL1        0.1425
     34 H          67.0213   91.8019   13.2303 H       1  UNL1        0.1425
     35 O          65.0333   90.4625   14.3571 O.3     1  UNL1       -0.4665
     36 C          64.2047   90.4094   15.6063 C.3     1  UNL1        0.2891
     37 C          63.6811   89.0946   16.1038 C.3     1  UNL1        0.4366
     38 F          63.1576   87.7800   16.6012 F       1  UNL1       -0.1663
     39 F          64.3399   88.3962   14.9513 F       1  UNL1       -0.1663
     40 F          63.0224   89.7931   17.2562 F       1  UNL1       -0.1663
     41 C          63.8996   91.6710   16.3581 C.3     1  UNL1        0.1945
     42 C          66.2745   92.7191   16.2517 C.3     1  UNL1        0.1743
     43 O          65.0090   92.4436   17.0083 O.3     1  UNL1       -0.3469
@<TRIPOS>UNITY_ATOM_ATTR
3 1
charge 1
4 1
charge -1
@<TRIPOS>BOND
     1    42    43    1
     2    43    41    1
     3    36    41    1
     4    36    35    1
     5    35    25    1
     6    25    26   ar
     7    26    27   ar
     8    27    24    1
     9     1    24    1
    10     1     2    1
    11     2     3    1
    12     3     4    2
    13     3     5    1
    14     5     6    1
    15     6    10    1
    16    10    12    1
    17    12    13    1
    18    12    14    1
    19    14    15   ar
    20    15    16   ar
    21    16    17   ar
    22    17    18   ar
    23    18    20    1
    24    20    21    1
    25    20    22    1
    26    20    23    1
    27    18    19   ar
    28     6     7    1
    29     7     8    1
    30    27    28   ar
    31    28    29   ar
    32    29    30    1
    33    29    31   ar
    34    31    32    1
    35    36    37    1
    36    37    38    1
    37    37    39    1
    38    37    40    1
    39    31    25   ar
    40     7     1    1
    41    19    14   ar
    42    10    11    1
    43     8     9    1
    44    32    33    1
    45    32    34    1
@<TRIPOS>MOLECULE
*****
 43 45 0 0 0
SMALL
GASTEIGER

@<TRIPOS>ATOM
      1 C          61.1167   87.8140   10.6410 C.3     1  UNL1        0.0920
      2 C          59.7008   87.8458   11.1353 C.3     1  UNL1        0.2582
      3 S          59.2322   88.9814   11.9960 S.O     1  UNL1        0.0319
      4 O          57.8164   89.0133   12.4903 O.co2   1  UNL1       -0.6812
      5 C          60.1796   90.0852   12.3625 C.3     1  UNL1        0.2736
      6 C          61.5954   90.0534   11.8682 C.3     1  UNL1        0.1415
      7 C          62.0640   88.9178   11.0074 C.3     1  UNL1        0.1353
      8 O          63.4799   88.8860   10.5131 O.3     1  UNL1       -0.3827
      9 H          63.9536   89.6674   10.8386 H       1  UNL1        0.2104
     10 N          62.5427   91.1572   12.2346 N.3     1  UNL1       -0.2900
     11 H          61.9724   91.9435   12.5459 H       1  UNL1        0.1237
     12 C          63.5838   90.9323   13.2908 C.3     1  UNL1        0.0770
     13 C          63.2337   90.1810   14.5410 C.3     1  UNL1        0.0220
     14 C          64.9750   91.4588   13.0969 C.ar    1  UNL1       -0.0083
     15 C          65.9918   91.3115   14.1897 C.ar    1  UNL1       -0.0030
     16 C          67.3829   91.8379   13.9958 C.ar    1  UNL1       -0.0006
     17 C          67.7572   92.5118   12.7090 C.ar    1  UNL1       -0.0043
     18 C          66.7403   92.6591   11.6161 C.ar    1  UNL1       -0.0231
     19 C          65.3492   92.1327   11.8101 C.ar    1  UNL1       -0.0073
     20 C          67.1146   93.3330   10.3293 C.3     1  UNL1        0.0189
     21 C          66.2767   94.5186   10.7065 C.3     1  UNL1        0.0044
     22 C          67.9524   92.1474    9.9521 C.3     1  UNL1        0.0044
     23 C          67.4888   94.0068    9.0425 C.3     1  UNL1        0.0044
     24 C          61.5853   86.6784    9.7803 C.3     1  UNL1        0.0342
     25 C          62.7169   83.9854   12.4667 C.ar    1  UNL1        0.1535
     26 C          62.0289   85.1639   11.8442 C.ar    1  UNL1        0.0341
     27 C          62.2734   85.4998   10.4029 C.ar    1  UNL1       -0.0166
     28 C          63.2060   84.6573    9.5841 C.ar    1  UNL1        0.0268
     29 C          63.8940   83.4788   10.2067 C.ar    1  UNL1        0.1556
     30 F          64.8267   82.6362    9.3880 F       1  UNL1       -0.2028
     31 C          63.6495   83.1428   11.6480 C.ar    1  UNL1        0.1037
     32 N          64.3377   81.9642   12.2706 N.pl3   1  UNL1       -0.3529
     33 H          64.9498   81.4112   11.7332 H       1  UNL1        0.1425
     34 H          64.1772   81.7437   13.2165 H       1  UNL1        0.1425
     35 O          62.4724   83.6494   13.9080 O.3     1  UNL1       -0.4665
     36 C          63.1255   84.4596   14.9882 C.3     1  UNL1        0.2891
     37 C          64.5110   84.9986   14.7878 C.3     1  UNL1        0.4366
     38 F          65.8964   85.5376   14.5874 F       1  UNL1       -0.1663
     39 F          63.9449   86.3688   14.5595 F       1  UNL1       -0.1663
     40 F          65.0770   83.6285   15.0161 F       1  UNL1       -0.1663
     41 C          62.3933   84.7309   16.2689 C.3     1  UNL1        0.1945
     42 C          62.6848   86.6745   17.9683 C.3     1  UNL1        0.1743
     43 O          62.1123   86.1438   16.6874 O.3     1  UNL1       -0.3469
@<TRIPOS>UNITY_ATOM_ATTR
3 1
charge 1
4 1
charge -1
@<TRIPOS>BOND
     1    42    43    1
     2    43    41    1
     3    36    41    1
     4    36    35    1
     5    35    25    1
     6    25    26   ar
     7    26    27   ar
     8    27    24    1
     9     1    24    1
    10     1     2    1
    11     2     3    1
    12     3     4    2
    13     3     5    1
    14     5     6    1
    15     6    10    1
    16    10    12    1
    17    12    13    1
    18    12    14    1
    19    14    15   ar
    20    15    16   ar
    21    16    17   ar
    22    17    18   ar
    23    18    20    1
    24    20    21    1
    25    20    22    1
    26    20    23    1
    27    18    19   ar
    28     6     7    1
    29     7     8    1
    30    27    28   ar
    31    28    29   ar
    32    29    30    1
    33    29    31   ar
    34    31    32    1
    35    36    37    1
    36    37    38    1
    37    37    39    1
    38    37    40    1
    39    31    25   ar
    40     7     1    1
    41    19    14   ar
    42    10    11    1
    43     8     9    1
    44    32    33    1
    45    32    34    1
@<TRIPOS>MOLECULE
*****
 43 45 0 0 0
SMALL
GASTEIGER

@<TRIPOS>ATOM
      1 C          63.0753   89.9960   13.0639 C.3     1  UNL1        0.0920
      2 C          62.8102   89.4976   14.4537 C.3     1  UNL1        0.2582
      3 S          63.5311   90.1072   15.6193 S.O     1  UNL1        0.0319
      4 O          63.2660   89.6089   17.0090 O.co2   1  UNL1       -0.6812
      5 C          64.5171   91.2153   15.3952 C.3     1  UNL1        0.2736
      6 C          64.7821   91.7136   14.0054 C.3     1  UNL1        0.1415
      7 C          64.0612   91.1039   12.8398 C.3     1  UNL1        0.1353
      8 O          64.3263   91.6023   11.4500 O.3     1  UNL1       -0.3827
      9 H          64.9843   92.3144   11.4819 H       1  UNL1        0.2104
     10 N          65.7681   92.8216   13.7813 N.3     1  UNL1       -0.2900
     11 H          65.9458   93.2463   14.6915 H       1  UNL1        0.1237
     12 C          67.1068   92.5229   13.1740 C.3     1  UNL1        0.0770
     13 C          68.1841   91.8931   14.0062 C.3     1  UNL1        0.0220
     14 C          67.3680   92.8540   11.7345 C.ar    1  UNL1       -0.0083
     15 C          68.2455   91.9621   10.9071 C.ar    1  UNL1       -0.0030
     16 C          68.5068   92.2932    9.4675 C.ar    1  UNL1       -0.0006
     17 C          67.8905   93.5162    8.8555 C.ar    1  UNL1       -0.0043
     18 C          67.0130   94.4080    9.6829 C.ar    1  UNL1       -0.0231
     19 C          66.7518   94.0769   11.1224 C.ar    1  UNL1       -0.0073
     20 C          66.3967   95.6310    9.0709 C.3     1  UNL1        0.0189
     21 C          65.7809   95.9822   10.3927 C.3     1  UNL1        0.0044
     22 C          67.0126   95.2797    7.7490 C.3     1  UNL1        0.0044
     23 C          65.7805   96.8539    8.4588 C.3     1  UNL1        0.0044
     24 C          62.3544   89.3863   11.8983 C.3     1  UNL1        0.0342
     25 C          63.2226   85.5470   12.4042 C.ar    1  UNL1        0.1535
     26 C          63.1658   87.0289   12.6292 C.ar    1  UNL1        0.0341
     27 C          62.4112   87.9043   11.6732 C.ar    1  UNL1       -0.0166
     28 C          61.7133   87.2979   10.4920 C.ar    1  UNL1        0.0268
     29 C          61.7701   85.8160   10.2669 C.ar    1  UNL1        0.1556
     30 F          61.0722   85.2095    9.0857 F       1  UNL1       -0.2028
     31 C          62.5247   84.9406   11.2230 C.ar    1  UNL1        0.1037
     32 N          62.5815   83.4586   10.9979 N.pl3   1  UNL1       -0.3529
     33 H          62.1234   83.0606   10.2226 H       1  UNL1        0.1425
     34 H          63.0768   82.8840   11.6253 H       1  UNL1        0.1425
     35 O          63.9773   84.6715   13.3602 O.3     1  UNL1       -0.4665
     36 C          63.3952   84.3542   14.7057 C.3     1  UNL1        0.2891
     37 C          63.5149   85.3434   15.8270 C.3     1  UNL1        0.4366
     38 F          63.6346   86.3326   16.9481 F       1  UNL1       -0.1663
     39 F          62.1920   84.8894   16.3688 F       1  UNL1       -0.1663
     40 F          64.8379   85.7974   15.2851 F       1  UNL1       -0.1663
     41 C          62.6935   83.0475   14.9301 C.3     1  UNL1        0.1945
     42 C          62.0215   80.8106   13.7922 C.3     1  UNL1        0.1743
     43 O          62.0952   82.3086   13.7698 O.3     1  UNL1       -0.3469
@<TRIPOS>UNITY_ATOM_ATTR
3 1
charge 1
4 1
charge -1
@<TRIPOS>BOND
     1    42    43    1
     2    43    41    1
     3    36    41    1
     4    36    35    1
     5    35    25    1
     6    25    26   ar
     7    26    27   ar
     8    27    24    1
     9     1    24    1
    10     1     2    1
    11     2     3    1
    12     3     4    2
    13     3     5    1
    14     5     6    1
    15     6    10    1
    16    10    12    1
    17    12    13    1
    18    12    14    1
    19    14    15   ar
    20    15    16   ar
    21    16    17   ar
    22    17    18   ar
    23    18    20    1
    24    20    21    1
    25    20    22    1
    26    20    23    1
    27    18    19   ar
    28     6     7    1
    29     7     8    1
    30    27    28   ar
    31    28    29   ar
    32    29    30    1
    33    29    31   ar
    34    31    32    1
    35    36    37    1
    36    37    38    1
    37    37    39    1
    38    37    40    1
    39    31    25   ar
    40     7     1    1
    41    19    14   ar
    42    10    11    1
    43     8     9    1
    44    32    33    1
    45    32    34    1
@<TRIPOS>MOLECULE
*****
 43 45 0 0 0
SMALL
GASTEIGER

@<TRIPOS>ATOM
      1 C          62.9408   84.6838    8.6382 C.3     1  UNL1        0.0920
      2 C          62.7975   84.1735    7.2349 C.3     1  UNL1        0.2582
      3 S          61.6367   84.6120    6.3922 S.O     1  UNL1        0.0319
      4 O          61.4934   84.1017    4.9890 O.co2   1  UNL1       -0.6812
      5 C          60.6191   85.5609    6.9528 C.3     1  UNL1        0.2736
      6 C          60.7623   86.0711    8.3560 C.3     1  UNL1        0.1415
      7 C          61.9232   85.6326    9.1987 C.3     1  UNL1        0.1353
      8 O          62.0664   86.1430   10.6020 O.3     1  UNL1       -0.3827
      9 H          61.3305   86.7413   10.8051 H       1  UNL1        0.2104
     10 N          59.7447   87.0200    8.9166 N.3     1  UNL1       -0.2900
     11 H          59.5685   86.7285    9.8780 H       1  UNL1        0.1237
     12 C          60.0331   88.4915    8.9562 C.3     1  UNL1        0.0770
     13 C          59.7537   89.3432    7.7536 C.3     1  UNL1        0.0220
     14 C          60.6009   89.1113   10.1987 C.ar    1  UNL1       -0.0083
     15 C          59.8883   88.9527   11.5090 C.ar    1  UNL1       -0.0030
     16 C          60.4562   89.5724   12.7514 C.ar    1  UNL1       -0.0006
     17 C          61.7366   90.3508   12.6834 C.ar    1  UNL1       -0.0043
     18 C          62.4492   90.5094   11.3730 C.ar    1  UNL1       -0.0231
     19 C          61.8814   89.8896   10.1307 C.ar    1  UNL1       -0.0073
     20 C          63.7296   91.2878   11.3050 C.3     1  UNL1        0.0189
     21 C          64.0142   90.9447   12.7372 C.3     1  UNL1        0.0044
     22 C          63.4451   91.6308    9.8727 C.3     1  UNL1        0.0044
     23 C          65.0101   92.0661   11.2370 C.3     1  UNL1        0.0044
     24 C          64.1016   84.2453    9.4809 C.3     1  UNL1        0.0342
     25 C          63.9150   82.8969   13.2088 C.ar    1  UNL1        0.1535
     26 C          64.1387   83.8133   12.0426 C.ar    1  UNL1        0.0341
     27 C          63.8779   83.3288   10.6471 C.ar    1  UNL1       -0.0166
     28 C          63.3934   81.9278   10.4179 C.ar    1  UNL1        0.0268
     29 C          63.1697   81.0114   11.5841 C.ar    1  UNL1        0.1556
     30 F          62.6852   79.6104   11.3549 F       1  UNL1       -0.2028
     31 C          63.4305   81.4959   12.9795 C.ar    1  UNL1        0.1037
     32 N          63.2068   80.5794   14.1458 N.pl3   1  UNL1       -0.3529
     33 H          62.8888   79.6599   13.9953 H       1  UNL1        0.1425
     34 H          63.3780   80.8974   15.0617 H       1  UNL1        0.1425
     35 O          64.1758   83.3814   14.6042 O.3     1  UNL1       -0.4665
     36 C          63.5386   84.6497   15.0891 C.3     1  UNL1        0.2891
     37 C          64.1033   85.9774   14.6787 C.3     1  UNL1        0.4366
     38 F          64.6680   87.3050   14.2683 F       1  UNL1       -0.1663
     39 F          63.0615   86.0887   13.6053 F       1  UNL1       -0.1663
     40 F          65.1451   85.8661   15.7521 F       1  UNL1       -0.1663
     41 C          62.3366   84.5904   15.9845 C.3     1  UNL1        0.1945
     42 C          62.6159   86.3537   17.8721 C.3     1  UNL1        0.1743
     43 O          61.8623   85.8285   16.6862 O.3     1  UNL1       -0.3469
@<TRIPOS>UNITY_ATOM_ATTR
3 1
charge 1
4 1
charge -1
@<TRIPOS>BOND
     1    42    43    1
     2    43    41    1
     3    36    41    1
     4    36    35    1
     5    35    25    1
     6    25    26   ar
     7    26    27   ar
     8    27    24    1
     9     1    24    1
    10     1     2    1
    11     2     3    1
    12     3     4    2
    13     3     5    1
    14     5     6    1
    15     6    10    1
    16    10    12    1
    17    12    13    1
    18    12    14    1
    19    14    15   ar
    20    15    16   ar
    21    16    17   ar
    22    17    18   ar
    23    18    20    1
    24    20    21    1
    25    20    22    1
    26    20    23    1
    27    18    19   ar
    28     6     7    1
    29     7     8    1
    30    27    28   ar
    31    28    29   ar
    32    29    30    1
    33    29    31   ar
    34    31    32    1
    35    36    37    1
    36    37    38    1
    37    37    39    1
    38    37    40    1
    39    31    25   ar
    40     7     1    1
    41    19    14   ar
    42    10    11    1
    43     8     9    1
    44    32    33    1
    45    32    34    1
@<TRIPOS>MOLECULE
*****
 43 45 0 0 0
SMALL
GASTEIGER

@<TRIPOS>ATOM
      1 C          62.7389   89.4830   12.5872 C.3     1  UNL1        0.0920
      2 C          62.6421   88.9939   14.0020 C.3     1  UNL1        0.2582
      3 S          63.4044   89.6903   15.0901 S.O     1  UNL1        0.0319
      4 O          63.3076   89.2013   16.5048 O.co2   1  UNL1       -0.6812
      5 C          64.2634   90.8758   14.7634 C.3     1  UNL1        0.2736
      6 C          64.3602   91.3649   13.3487 C.3     1  UNL1        0.1415
      7 C          63.5979   90.6685   12.2606 C.3     1  UNL1        0.1353
      8 O          63.6947   91.1576   10.8459 O.3     1  UNL1       -0.3827
      9 H          64.2863   91.9254   10.8090 H       1  UNL1        0.2104
     10 N          65.2193   92.5504   13.0221 N.3     1  UNL1       -0.2900
     11 H          65.2186   93.1507   13.8467 H       1  UNL1        0.1237
     12 C          66.6541   92.3521   12.6321 C.3     1  UNL1        0.0770
     13 C          67.6196   91.7468   13.6074 C.3     1  UNL1        0.0220
     14 C          67.1233   92.7593   11.2667 C.ar    1  UNL1       -0.0083
     15 C          68.1559   91.9383   10.5528 C.ar    1  UNL1       -0.0030
     16 C          68.6251   92.3454    9.1874 C.ar    1  UNL1       -0.0006
     17 C          68.0617   93.5735    8.5360 C.ar    1  UNL1       -0.0043
     18 C          67.0290   94.3945    9.2500 C.ar    1  UNL1       -0.0231
     19 C          66.5599   93.9874   10.6153 C.ar    1  UNL1       -0.0073
     20 C          66.4656   95.6226    8.5987 C.3     1  UNL1        0.0189
     21 C          65.7775   95.9870    9.8808 C.3     1  UNL1        0.0044
     22 C          67.1537   95.2583    7.3166 C.3     1  UNL1        0.0044
     23 C          65.9022   96.8508    7.9473 C.3     1  UNL1        0.0044
     24 C          61.9766   88.7867   11.4991 C.3     1  UNL1        0.0342
     25 C          63.2735   85.0391   11.6527 C.ar    1  UNL1        0.1535
     26 C          62.8742   86.4194   12.0828 C.ar    1  UNL1        0.0341
     27 C          62.3759   87.4062   11.0689 C.ar    1  UNL1       -0.0166
     28 C          62.2770   87.0126    9.6249 C.ar    1  UNL1        0.0268
     29 C          62.6764   85.6323    9.1948 C.ar    1  UNL1        0.1556
     30 F          62.5775   85.2386    7.7507 F       1  UNL1       -0.2028
     31 C          63.1746   84.6455   10.2087 C.ar    1  UNL1        0.1037
     32 N          63.5740   83.2650    9.7785 N.pl3   1  UNL1       -0.3529
     33 H          63.5090   83.0067    8.8307 H       1  UNL1        0.1425
     34 H          63.9010   82.6174   10.4439 H       1  UNL1        0.1425
     35 O          63.7718   84.0523   12.6666 O.3     1  UNL1       -0.4665
     36 C          62.8043   83.3704   13.5880 C.3     1  UNL1        0.2891
     37 C          62.5485   81.8987   13.4513 C.3     1  UNL1        0.4366
     38 F          62.2927   80.4270   13.3145 F       1  UNL1       -0.1663
     39 F          61.3636   82.0199   14.3630 F       1  UNL1       -0.1663
     40 F          63.7333   81.7775   12.5395 F       1  UNL1       -0.1663
     41 C          62.0926   84.1602   14.6462 C.3     1  UNL1        0.1945
     42 C          63.7940   85.6573   15.9167 C.3     1  UNL1        0.1743
     43 O          62.8055   84.5291   15.9134 O.3     1  UNL1       -0.3469
@<TRIPOS>UNITY_ATOM_ATTR
3 1
charge 1
4 1
charge -1
@<TRIPOS>BOND
     1    42    43    1
     2    43    41    1
     3    36    41    1
     4    36    35    1
     5    35    25    1
     6    25    26   ar
     7    26    27   ar
     8    27    24    1
     9     1    24    1
    10     1     2    1
    11     2     3    1
    12     3     4    2
    13     3     5    1
    14     5     6    1
    15     6    10    1
    16    10    12    1
    17    12    13    1
    18    12    14    1
    19    14    15   ar
    20    15    16   ar
    21    16    17   ar
    22    17    18   ar
    23    18    20    1
    24    20    21    1
    25    20    22    1
    26    20    23    1
    27    18    19   ar
    28     6     7    1
    29     7     8    1
    30    27    28   ar
    31    28    29   ar
    32    29    30    1
    33    29    31   ar
    34    31    32    1
    35    36    37    1
    36    37    38    1
    37    37    39    1
    38    37    40    1
    39    31    25   ar
    40     7     1    1
    41    19    14   ar
    42    10    11    1
    43     8     9    1
    44    32    33    1
    45    32    34    1
