@<TRIPOS>MOLECULE
*****
 30 32 0 0 0
SMALL
GASTEIGER

@<TRIPOS>ATOM
      1 C          61.9673   88.1912   11.1101 C.3     1  UNL1        0.1811
      2 O          63.0818   87.8527   12.0552 O.3     1  UNL1       -0.3784
      3 H          63.2231   88.5923   12.6666 H       1  UNL1        0.2106
      4 C          60.8528   88.5297   10.1649 C.3     1  UNL1        0.4197
      5 F          59.7383   88.8683    9.2198 F       1  UNL1       -0.1676
      6 F          61.6418   87.9517    9.0275 F       1  UNL1       -0.1676
      7 F          60.0639   89.1077   11.3022 F       1  UNL1       -0.1676
      8 C          61.8050   89.5241   11.7788 C.3     1  UNL1        0.0398
      9 C          63.0135   90.2857   12.2365 C.3     1  UNL1        0.0212
     10 C          62.5895   90.1008   13.6635 C.3     1  UNL1        0.0044
     11 C          63.4375   90.4705   10.8096 C.3     1  UNL1        0.0044
     12 C          64.5802   89.3280   14.6090 C.3     1  UNL1        0.0307
     13 C          65.0054   90.5684   13.8805 C.ar    1  UNL1       -0.0257
     14 C          66.2139   91.3299   14.3382 C.ar    1  UNL1       -0.0023
     15 C          66.6390   92.5704   13.6097 C.ar    1  UNL1        0.0293
     16 C          65.8556   93.0492   12.4236 C.ar    1  UNL1        0.1398
     17 F          66.2808   94.2896   11.6951 F       1  UNL1       -0.2042
     18 C          64.6471   92.2876   11.9658 C.ar    1  UNL1        0.0250
     19 C          64.2220   91.0472   12.6943 C.ar    1  UNL1       -0.0244
     20 C          62.1296   86.8584   10.4413 C.3     1  UNL1        0.0808
     21 C          62.4255   85.6385   11.2623 C.2     1  UNL1        0.0574
     22 N          62.1313   85.4661   12.7231 N.2     1  UNL1       -0.2487
     23 C          62.5915   84.0977   13.1303 C.2     1  UNL1        0.0961
     24 C          62.5584   83.3778   14.4458 C.2     1  UNL1        0.1172
     25 N          63.1040   81.9846   14.5523 N.2     1  UNL1       -0.2451
     26 C          63.6826   81.3113   13.3433 C.2     1  UNL1        0.0773
     27 C          63.7157   82.0311   12.0277 C.3     1  UNL1        0.0746
     28 C          63.1701   83.4243   11.9212 C.2     1  UNL1        0.0002
     29 C          63.0676   84.3766   10.7668 C.2     1  UNL1       -0.0103
     30 C          63.5264   84.1133    9.3632 C.3     1  UNL1        0.0320
@<TRIPOS>BOND
     1    12    13    1
     2    13    14   ar
     3    14    15   ar
     4    15    16   ar
     5    16    17    1
     6    16    18   ar
     7    18    19   ar
     8    19     9    1
     9     9    10    1
    10     9    11    1
    11     9     8    1
    12     8     1    1
    13     1     2    1
    14     1    20    1
    15    20    21    1
    16    21    22    2
    17    22    23    1
    18    23    24    2
    19    24    25    1
    20    25    26    2
    21    26    27    1
    22    27    28    1
    23    28    29    2
    24    29    30    1
    25     1     4    1
    26     4     5    1
    27     4     6    1
    28     4     7    1
    29    19    13   ar
    30    29    21    1
    31    28    23    1
    32     2     3    1
@<TRIPOS>MOLECULE
*****
 30 32 0 0 0
SMALL
GASTEIGER

@<TRIPOS>ATOM
      1 C          61.8236   87.4230   10.8347 C.3     1  UNL1        0.1811
      2 O          63.0176   87.3707   11.7411 O.3     1  UNL1       -0.3784
      3 H          63.5291   86.5676   11.5561 H       1  UNL1        0.2106
      4 C          60.6297   87.4754    9.9283 C.3     1  UNL1        0.4197
      5 F          59.4357   87.5276    9.0217 F       1  UNL1       -0.1676
      6 F          59.7693   87.8888   11.0854 F       1  UNL1       -0.1676
      7 F          61.4900   87.0619    8.7712 F       1  UNL1       -0.1676
      8 C          62.2404   86.1242   10.2107 C.3     1  UNL1        0.0398
      9 C          62.5861   84.9514   11.0797 C.3     1  UNL1        0.0212
     10 C          63.5627   84.4736   10.0463 C.3     1  UNL1        0.0044
     11 C          61.6094   85.4293   12.1130 C.3     1  UNL1        0.0044
     12 C          63.9223   85.3902   13.7296 C.3     1  UNL1        0.0307
     13 C          63.5998   83.9981   13.2736 C.ar    1  UNL1       -0.0257
     14 C          63.9455   82.8253   14.1426 C.ar    1  UNL1       -0.0023
     15 C          63.6230   81.4331   13.6867 C.ar    1  UNL1        0.0293
     16 C          62.9549   81.2138   12.3617 C.ar    1  UNL1        0.1398
     17 F          62.6323   79.8216   11.9058 F       1  UNL1       -0.2042
     18 C          62.6092   82.3865   11.4927 C.ar    1  UNL1        0.0250
     19 C          62.9317   83.7787   11.9487 C.ar    1  UNL1       -0.0244
     20 C          61.4068   88.7218   11.4587 C.3     1  UNL1        0.0808
     21 C          62.4311   89.6050   12.1073 C.2     1  UNL1        0.0574
     22 N          62.8323   89.5759   13.5524 N.2     1  UNL1       -0.2487
     23 C          63.8832   90.6254   13.7629 C.2     1  UNL1        0.0961
     24 C          64.6461   91.0515   14.9821 C.2     1  UNL1        0.1172
     25 N          65.6573   92.1553   14.8864 N.2     1  UNL1       -0.2451
     26 C          65.9056   92.8330   13.5715 C.2     1  UNL1        0.0773
     27 C          65.1427   92.4069   12.3522 C.3     1  UNL1        0.0746
     28 C          64.1315   91.3031   12.4479 C.2     1  UNL1        0.0002
     29 C          63.2341   90.6725   11.4247 C.2     1  UNL1       -0.0103
     30 C          63.1536   91.0441    9.9738 C.3     1  UNL1        0.0320
@<TRIPOS>BOND
     1    12    13    1
     2    13    14   ar
     3    14    15   ar
     4    15    16   ar
     5    16    17    1
     6    16    18   ar
     7    18    19   ar
     8    19     9    1
     9     9    10    1
    10     9    11    1
    11     9     8    1
    12     8     1    1
    13     1     2    1
    14     1    20    1
    15    20    21    1
    16    21    22    2
    17    22    23    1
    18    23    24    2
    19    24    25    1
    20    25    26    2
    21    26    27    1
    22    27    28    1
    23    28    29    2
    24    29    30    1
    25     1     4    1
    26     4     5    1
    27     4     6    1
    28     4     7    1
    29    19    13   ar
    30    29    21    1
    31    28    23    1
    32     2     3    1
@<TRIPOS>MOLECULE
*****
 30 32 0 0 0
SMALL
GASTEIGER

@<TRIPOS>ATOM
      1 C          62.1260   88.3601   11.4236 C.3     1  UNL1        0.1811
      2 O          63.2649   87.8968   12.2828 O.3     1  UNL1       -0.3784
      3 H          63.4786   88.5831   12.9341 H       1  UNL1        0.2106
      4 C          60.9871   88.8235   10.5645 C.3     1  UNL1        0.4197
      5 F          59.8482   89.2868    9.7052 F       1  UNL1       -0.1676
      6 F          60.2727   89.3278   11.7833 F       1  UNL1       -0.1676
      7 F          61.7015   88.3192    9.3457 F       1  UNL1       -0.1676
      8 C          62.0738   89.6497   12.1881 C.3     1  UNL1        0.0398
      9 C          63.3393   90.4002   12.4801 C.3     1  UNL1        0.0212
     10 C          63.5862   90.5564   11.0089 C.3     1  UNL1        0.0044
     11 C          63.0925   90.2440   13.9514 C.3     1  UNL1        0.0044
     12 C          64.3397   92.4638   10.5460 C.3     1  UNL1        0.0307
     13 C          65.1050   92.1825   11.8050 C.ar    1  UNL1       -0.0257
     14 C          66.3705   92.9330   12.0970 C.ar    1  UNL1       -0.0023
     15 C          67.1358   92.6517   13.3561 C.ar    1  UNL1        0.0293
     16 C          66.6356   91.6199   14.3231 C.ar    1  UNL1        0.1398
     17 F          67.4009   91.3385   15.5822 F       1  UNL1       -0.2042
     18 C          65.3701   90.8694   14.0311 C.ar    1  UNL1        0.0250
     19 C          64.6048   91.1507   12.7721 C.ar    1  UNL1       -0.0244
     20 C          62.1782   87.0707   10.6591 C.3     1  UNL1        0.0808
     21 C          62.4411   85.7817   11.3798 C.2     1  UNL1        0.0574
     22 N          62.1893   85.5177   12.8348 N.2     1  UNL1       -0.2487
     23 C          62.5946   84.1031   13.1262 C.2     1  UNL1        0.0961
     24 C          62.5712   83.2920   14.3877 C.2     1  UNL1        0.1172
     25 N          63.0500   81.8705   14.3743 N.2     1  UNL1       -0.2451
     26 C          63.5523   81.2602   13.0995 C.2     1  UNL1        0.0773
     27 C          63.5757   82.0714   11.8379 C.3     1  UNL1        0.0746
     28 C          63.0969   83.4929   11.8512 C.2     1  UNL1        0.0002
     29 C          63.0020   84.5302   10.7720 C.2     1  UNL1       -0.0103
     30 C          63.3984   84.3482    9.3368 C.3     1  UNL1        0.0320
@<TRIPOS>BOND
     1    12    13    1
     2    13    14   ar
     3    14    15   ar
     4    15    16   ar
     5    16    17    1
     6    16    18   ar
     7    18    19   ar
     8    19     9    1
     9     9    10    1
    10     9    11    1
    11     9     8    1
    12     8     1    1
    13     1     2    1
    14     1    20    1
    15    20    21    1
    16    21    22    2
    17    22    23    1
    18    23    24    2
    19    24    25    1
    20    25    26    2
    21    26    27    1
    22    27    28    1
    23    28    29    2
    24    29    30    1
    25     1     4    1
    26     4     5    1
    27     4     6    1
    28     4     7    1
    29    19    13   ar
    30    29    21    1
    31    28    23    1
    32     2     3    1
@<TRIPOS>MOLECULE
*****
 30 32 0 0 0
SMALL
GASTEIGER

@<TRIPOS>ATOM
      1 C          61.4278   89.5132   10.6699 C.3     1  UNL1        0.1811
      2 O          62.7973   89.6532   10.0742 O.3     1  UNL1       -0.3784
      3 H          62.9441   88.9425    9.4305 H       1  UNL1        0.2106
      4 C          60.0584   89.3732   11.2657 C.3     1  UNL1        0.4197
      5 F          58.6888   89.2332   11.8613 F       1  UNL1       -0.1676
      6 F          60.6330   89.5809   12.6356 F       1  UNL1       -0.1676
      7 F          59.4837   89.1655    9.8958 F       1  UNL1       -0.1676
      8 C          61.1843   88.2981    9.8248 C.3     1  UNL1        0.0398
      9 C          61.7657   86.9754   10.2278 C.3     1  UNL1        0.0212
     10 C          62.7065   87.6742   11.1641 C.3     1  UNL1        0.0044
     11 C          60.8249   86.2766    9.2916 C.3     1  UNL1        0.0044
     12 C          63.2577   85.3184    8.2206 C.3     1  UNL1        0.0307
     13 C          63.0931   84.8242    9.6273 C.ar    1  UNL1       -0.0257
     14 C          63.6745   83.5015   10.0303 C.ar    1  UNL1       -0.0023
     15 C          63.5099   83.0073   11.4370 C.ar    1  UNL1        0.0293
     16 C          62.7639   83.8358   12.4406 C.ar    1  UNL1        0.1398
     17 F          62.5993   83.3415   13.8473 F       1  UNL1       -0.2042
     18 C          62.1825   85.1585   12.0375 C.ar    1  UNL1        0.0250
     19 C          62.3471   85.6527   10.6309 C.ar    1  UNL1       -0.0244
     20 C          61.6713   90.7283   11.5151 C.3     1  UNL1        0.0808
     21 C          63.0691   91.0936   11.9182 C.2     1  UNL1        0.0574
     22 N          64.0515   91.8682   11.0906 N.2     1  UNL1       -0.2487
     23 C          65.3196   92.0018   11.8807 C.2     1  UNL1        0.0961
     24 C          66.6295   92.6642   11.5719 C.2     1  UNL1        0.1172
     25 N          67.7407   92.6346   12.5790 N.2     1  UNL1       -0.2451
     26 C          67.5421   91.9425   13.8949 C.2     1  UNL1        0.0773
     27 C          66.2322   91.2801   14.2037 C.3     1  UNL1        0.0746
     28 C          65.1209   91.3097   13.1966 C.2     1  UNL1        0.0002
     29 C          63.7301   90.7484   13.2198 C.2     1  UNL1       -0.0103
     30 C          63.1092   89.9774   14.3467 C.3     1  UNL1        0.0320
@<TRIPOS>BOND
     1    12    13    1
     2    13    14   ar
     3    14    15   ar
     4    15    16   ar
     5    16    17    1
     6    16    18   ar
     7    18    19   ar
     8    19     9    1
     9     9    10    1
    10     9    11    1
    11     9     8    1
    12     8     1    1
    13     1     2    1
    14     1    20    1
    15    20    21    1
    16    21    22    2
    17    22    23    1
    18    23    24    2
    19    24    25    1
    20    25    26    2
    21    26    27    1
    22    27    28    1
    23    28    29    2
    24    29    30    1
    25     1     4    1
    26     4     5    1
    27     4     6    1
    28     4     7    1
    29    19    13   ar
    30    29    21    1
    31    28    23    1
    32     2     3    1
@<TRIPOS>MOLECULE
*****
 30 32 0 0 0
SMALL
GASTEIGER

@<TRIPOS>ATOM
      1 C          63.4479   84.1681   11.2922 C.3     1  UNL1        0.1811
      2 O          63.4271   85.6387   11.5869 O.3     1  UNL1       -0.3784
      3 H          63.0014   86.1094   10.8534 H       1  UNL1        0.2106
      4 C          63.4688   82.6975   10.9974 C.3     1  UNL1        0.4197
      5 F          63.4896   81.2269   10.7027 F       1  UNL1       -0.1676
      6 F          64.6400   82.8976   10.0818 F       1  UNL1       -0.1676
      7 F          62.2976   82.4974   11.9129 F       1  UNL1       -0.1676
      8 C          62.7570   84.4203    9.9848 C.3     1  UNL1        0.0398
      9 C          62.1560   85.7651    9.7013 C.3     1  UNL1        0.0212
     10 C          61.3240   85.6554   10.9446 C.3     1  UNL1        0.0044
     11 C          62.9881   85.8748    8.4581 C.3     1  UNL1        0.0044
     12 C          59.8758   86.0116    7.7674 C.3     1  UNL1        0.0307
     13 C          60.4150   87.2331    8.4508 C.ar    1  UNL1       -0.0257
     14 C          59.8140   88.5779    8.1673 C.ar    1  UNL1       -0.0023
     15 C          60.3532   89.7995    8.8508 C.ar    1  UNL1        0.0293
     16 C          61.4933   89.6762    9.8177 C.ar    1  UNL1        0.1398
     17 F          62.0325   90.8978   10.5012 F       1  UNL1       -0.2042
     18 C          62.0942   88.3314   10.1012 C.ar    1  UNL1        0.0250
     19 C          61.5551   87.1099    9.4178 C.ar    1  UNL1       -0.0244
     20 C          64.1388   83.9159   12.5994 C.3     1  UNL1        0.0808
     21 C          63.8359   84.7807   13.7869 C.2     1  UNL1        0.0574
     22 N          64.1839   86.2326   13.9320 N.2     1  UNL1       -0.2487
     23 C          63.6948   86.6948   15.2727 C.2     1  UNL1        0.0961
     24 C          63.7575   88.0268   15.9594 C.2     1  UNL1        0.1172
     25 N          63.1700   88.1927   17.3296 N.2     1  UNL1       -0.2451
     26 C          62.5197   87.0265   18.0130 C.2     1  UNL1        0.0773
     27 C          62.4569   85.6944   17.3262 C.3     1  UNL1        0.0746
     28 C          63.0444   85.5285   15.9561 C.2     1  UNL1        0.0002
     29 C          63.1316   84.3456   15.0379 C.2     1  UNL1       -0.0103
     30 C          62.6068   82.9692   15.3208 C.3     1  UNL1        0.0320
@<TRIPOS>BOND
     1    12    13    1
     2    13    14   ar
     3    14    15   ar
     4    15    16   ar
     5    16    17    1
     6    16    18   ar
     7    18    19   ar
     8    19     9    1
     9     9    10    1
    10     9    11    1
    11     9     8    1
    12     8     1    1
    13     1     2    1
    14     1    20    1
    15    20    21    1
    16    21    22    2
    17    22    23    1
    18    23    24    2
    19    24    25    1
    20    25    26    2
    21    26    27    1
    22    27    28    1
    23    28    29    2
    24    29    30    1
    25     1     4    1
    26     4     5    1
    27     4     6    1
    28     4     7    1
    29    19    13   ar
    30    29    21    1
    31    28    23    1
    32     2     3    1
@<TRIPOS>MOLECULE
*****
 30 32 0 0 0
SMALL
GASTEIGER

@<TRIPOS>ATOM
      1 C          61.9737   87.4752   10.9401 C.3     1  UNL1        0.1811
      2 O          63.1664   87.3247   11.8371 O.3     1  UNL1       -0.3784
      3 H          63.6208   86.4921   11.6339 H       1  UNL1        0.2106
      4 C          60.7809   87.6257   10.0432 C.3     1  UNL1        0.4197
      5 F          59.5880   87.7762    9.1462 F       1  UNL1       -0.1676
      6 F          61.6211   87.2414    8.8614 F       1  UNL1       -0.1676
      7 F          59.9407   88.0099   11.2248 F       1  UNL1       -0.1676
      8 C          62.2972   86.1628   10.2897 C.3     1  UNL1        0.0398
      9 C          62.6297   84.9688   11.1346 C.3     1  UNL1        0.0212
     10 C          61.6591   85.4369   12.1781 C.3     1  UNL1        0.0044
     11 C          63.6003   84.5007   10.0911 C.3     1  UNL1        0.0044
     12 C          63.9737   85.3386   13.7911 C.3     1  UNL1        0.0307
     13 C          63.6343   83.9598   13.3078 C.ar    1  UNL1       -0.0257
     14 C          63.9668   82.7658   14.1527 C.ar    1  UNL1       -0.0023
     15 C          63.6274   81.3870   13.6694 C.ar    1  UNL1        0.0293
     16 C          62.9554   81.2021   12.3411 C.ar    1  UNL1        0.1398
     17 F          62.6159   79.8232   11.8577 F       1  UNL1       -0.2042
     18 C          62.6228   82.3961   11.4962 C.ar    1  UNL1        0.0250
     19 C          62.9623   83.7749   11.9795 C.ar    1  UNL1       -0.0244
     20 C          61.6502   88.7876   11.5905 C.3     1  UNL1        0.0808
     21 C          62.7027   89.8509   11.6981 C.2     1  UNL1        0.0574
     22 N          63.1971   90.7185   10.5788 N.2     1  UNL1       -0.2487
     23 C          64.2456   91.6371   11.1328 C.2     1  UNL1        0.0961
     24 C          65.0804   92.7079   10.4952 C.2     1  UNL1        0.1172
     25 N          66.0686   93.4788   11.3192 N.2     1  UNL1       -0.2451
     26 C          66.2221   93.1790   12.7809 C.2     1  UNL1        0.0773
     27 C          65.3874   92.1082   13.4186 C.3     1  UNL1        0.0746
     28 C          64.3991   91.3372   12.5946 C.2     1  UNL1        0.0002
     29 C          63.4456   90.2333   12.9439 C.2     1  UNL1       -0.0103
     30 C          63.2663   89.6195   14.3007 C.3     1  UNL1        0.0320
@<TRIPOS>BOND
     1    12    13    1
     2    13    14   ar
     3    14    15   ar
     4    15    16   ar
     5    16    17    1
     6    16    18   ar
     7    18    19   ar
     8    19     9    1
     9     9    10    1
    10     9    11    1
    11     9     8    1
    12     8     1    1
    13     1     2    1
    14     1    20    1
    15    20    21    1
    16    21    22    2
    17    22    23    1
    18    23    24    2
    19    24    25    1
    20    25    26    2
    21    26    27    1
    22    27    28    1
    23    28    29    2
    24    29    30    1
    25     1     4    1
    26     4     5    1
    27     4     6    1
    28     4     7    1
    29    19    13   ar
    30    29    21    1
    31    28    23    1
    32     2     3    1
@<TRIPOS>MOLECULE
*****
 30 32 0 0 0
SMALL
GASTEIGER

@<TRIPOS>ATOM
      1 C          61.8259   87.3709   10.7471 C.3     1  UNL1        0.1811
      2 O          62.9449   87.3082   11.7440 O.3     1  UNL1       -0.3784
      3 H          63.4388   86.4820   11.6242 H       1  UNL1        0.2106
      4 C          60.7069   87.4336    9.7502 C.3     1  UNL1        0.4197
      5 F          59.5878   87.4962    8.7532 F       1  UNL1       -0.1676
      6 F          59.7658   87.8695   10.8339 F       1  UNL1       -0.1676
      7 F          61.6479   86.9976    8.6665 F       1  UNL1       -0.1676
      8 C          62.2403   86.0379   10.1981 C.3     1  UNL1        0.0398
      9 C          62.6607   84.9406   11.1304 C.3     1  UNL1        0.0212
     10 C          61.5939   85.3556   12.0998 C.3     1  UNL1        0.0044
     11 C          63.7275   84.5257   10.1610 C.3     1  UNL1        0.0044
     12 C          62.7488   82.1021   10.1635 C.3     1  UNL1        0.0307
     13 C          63.1252   82.4241   11.5793 C.ar    1  UNL1       -0.0257
     14 C          63.5457   81.3269   12.5116 C.ar    1  UNL1       -0.0023
     15 C          63.9221   81.6489   13.9275 C.ar    1  UNL1        0.0293
     16 C          63.8780   83.0682   14.4110 C.ar    1  UNL1        0.1398
     17 F          64.2545   83.3902   15.8269 F       1  UNL1       -0.2042
     18 C          63.4576   84.1654   13.4786 C.ar    1  UNL1        0.0250
     19 C          63.0812   83.8434   12.0628 C.ar    1  UNL1       -0.0244
     20 C          61.4115   88.7039   11.2960 C.3     1  UNL1        0.0808
     21 C          62.4140   89.5696   11.9999 C.2     1  UNL1        0.0574
     22 N          62.7662   89.5052   13.4566 N.2     1  UNL1       -0.2487
     23 C          63.8103   90.5476   13.7276 C.2     1  UNL1        0.0961
     24 C          64.5319   90.9430   14.9817 C.2     1  UNL1        0.1172
     25 N          65.5467   92.0471   14.9466 N.2     1  UNL1       -0.2451
     26 C          65.8399   92.7557   13.6575 C.2     1  UNL1        0.0773
     27 C          65.1182   92.3603   12.4033 C.3     1  UNL1        0.0746
     28 C          64.1034   91.2562   12.4384 C.2     1  UNL1        0.0002
     29 C          63.2405   90.6518   11.3706 C.2     1  UNL1       -0.0103
     30 C          63.2094   91.0582    9.9271 C.3     1  UNL1        0.0320
@<TRIPOS>BOND
     1    12    13    1
     2    13    14   ar
     3    14    15   ar
     4    15    16   ar
     5    16    17    1
     6    16    18   ar
     7    18    19   ar
     8    19     9    1
     9     9    10    1
    10     9    11    1
    11     9     8    1
    12     8     1    1
    13     1     2    1
    14     1    20    1
    15    20    21    1
    16    21    22    2
    17    22    23    1
    18    23    24    2
    19    24    25    1
    20    25    26    2
    21    26    27    1
    22    27    28    1
    23    28    29    2
    24    29    30    1
    25     1     4    1
    26     4     5    1
    27     4     6    1
    28     4     7    1
    29    19    13   ar
    30    29    21    1
    31    28    23    1
    32     2     3    1
@<TRIPOS>MOLECULE
*****
 30 32 0 0 0
SMALL
GASTEIGER

@<TRIPOS>ATOM
      1 C          61.4064   89.5834   11.2028 C.3     1  UNL1        0.1811
      2 O          62.7588   89.0109   10.8979 O.3     1  UNL1       -0.3784
      3 H          62.6948   88.0449   10.8372 H       1  UNL1        0.2106
      4 C          60.0539   90.1559   11.5077 C.3     1  UNL1        0.4197
      5 F          58.7014   90.7285   11.8126 F       1  UNL1       -0.1676
      6 F          59.8359   89.0906   12.5411 F       1  UNL1       -0.1676
      7 F          60.2719   91.2211   10.4744 F       1  UNL1       -0.1676
      8 C          60.8231   88.2014   11.2110 C.3     1  UNL1        0.0398
      9 C          61.0076   87.3025   10.0244 C.3     1  UNL1        0.0212
     10 C          60.7444   88.4597    9.1069 C.3     1  UNL1        0.0044
     11 C          61.2708   86.1454   10.9418 C.3     1  UNL1        0.0044
     12 C          58.7273   86.8276    8.1336 C.3     1  UNL1        0.0307
     13 C          60.0518   86.1662    7.8924 C.ar    1  UNL1       -0.0257
     14 C          60.2362   85.2674    6.7057 C.ar    1  UNL1       -0.0023
     15 C          61.5608   84.6059    6.4646 C.ar    1  UNL1        0.0293
     16 C          62.7009   84.8434    7.4100 C.ar    1  UNL1        0.1398
     17 F          64.0255   84.1819    7.1688 F       1  UNL1       -0.2042
     18 C          62.5165   85.7422    8.5966 C.ar    1  UNL1        0.0250
     19 C          61.1920   86.4036    8.8378 C.ar    1  UNL1       -0.0244
     20 C          61.9895   90.9653   11.1947 C.3     1  UNL1        0.0808
     21 C          63.3162   91.2233   11.8452 C.2     1  UNL1        0.0574
     22 N          64.4798   91.9362   11.2224 N.2     1  UNL1       -0.2487
     23 C          65.5951   91.9672   12.2251 C.2     1  UNL1        0.0961
     24 C          66.9813   92.5374   12.1673 C.2     1  UNL1        0.1172
     25 N          67.8931   92.4140   13.3519 N.2     1  UNL1       -0.2451
     26 C          67.4188   91.7203   14.5944 C.2     1  UNL1        0.0773
     27 C          66.0326   91.1500   14.6523 C.3     1  UNL1        0.0746
     28 C          65.1207   91.2735   13.4676 C.2     1  UNL1        0.0002
     29 C          63.7124   90.8137   13.2329 C.2     1  UNL1       -0.0103
     30 C          62.8512   90.0743   14.2134 C.3     1  UNL1        0.0320
@<TRIPOS>BOND
     1    12    13    1
     2    13    14   ar
     3    14    15   ar
     4    15    16   ar
     5    16    17    1
     6    16    18   ar
     7    18    19   ar
     8    19     9    1
     9     9    10    1
    10     9    11    1
    11     9     8    1
    12     8     1    1
    13     1     2    1
    14     1    20    1
    15    20    21    1
    16    21    22    2
    17    22    23    1
    18    23    24    2
    19    24    25    1
    20    25    26    2
    21    26    27    1
    22    27    28    1
    23    28    29    2
    24    29    30    1
    25     1     4    1
    26     4     5    1
    27     4     6    1
    28     4     7    1
    29    19    13   ar
    30    29    21    1
    31    28    23    1
    32     2     3    1
@<TRIPOS>MOLECULE
*****
 30 32 0 0 0
SMALL
GASTEIGER

@<TRIPOS>ATOM
      1 C          61.4774   87.8310    9.5216 C.3     1  UNL1        0.1811
      2 O          62.8970   87.9814    9.9819 O.3     1  UNL1       -0.3784
      3 H          63.3330   87.1150    9.9738 H       1  UNL1        0.2106
      4 C          60.0577   87.6806    9.0613 C.3     1  UNL1        0.4197
      5 F          58.6380   87.5302    8.6009 F       1  UNL1       -0.1676
      6 F          59.5890   88.4671   10.2496 F       1  UNL1       -0.1676
      7 F          60.5263   86.8941    7.8731 F       1  UNL1       -0.1676
      8 C          61.6906   86.3567    9.3456 C.3     1  UNL1        0.0398
      9 C          62.3433   85.5580   10.4346 C.3     1  UNL1        0.0212
     10 C          61.3438   86.0859   11.4208 C.3     1  UNL1        0.0044
     11 C          63.3427   85.0300    9.4485 C.3     1  UNL1        0.0044
     12 C          63.0397   82.6771    9.9704 C.3     1  UNL1        0.0307
     13 C          63.3442   83.3188   11.2916 C.ar    1  UNL1       -0.0257
     14 C          63.9969   82.5201   12.3807 C.ar    1  UNL1       -0.0023
     15 C          64.3013   83.1619   13.7019 C.ar    1  UNL1        0.0293
     16 C          63.9531   84.6023   13.9340 C.ar    1  UNL1        0.1398
     17 F          64.2575   85.2440   15.2552 F       1  UNL1       -0.2042
     18 C          63.3004   85.4010   12.8449 C.ar    1  UNL1        0.0250
     19 C          62.9959   84.7593   11.5237 C.ar    1  UNL1       -0.0244
     20 C          61.2641   89.3053    9.6977 C.3     1  UNL1        0.0808
     21 C          62.3197   90.1423   10.3572 C.2     1  UNL1        0.0574
     22 N          63.2435   91.1014    9.6668 N.2     1  UNL1       -0.2487
     23 C          64.1317   91.7190   10.7060 C.2     1  UNL1        0.0961
     24 C          65.2333   92.7326   10.6109 C.2     1  UNL1        0.1172
     25 N          65.9601   93.1687   11.8484 N.2     1  UNL1       -0.2451
     26 C          65.5852   92.5913   13.1811 C.2     1  UNL1        0.0773
     27 C          64.4835   91.5777   13.2763 C.3     1  UNL1        0.0746
     28 C          63.7567   91.1416   12.0387 C.2     1  UNL1        0.0002
     29 C          62.6369   90.1671   11.8232 C.2     1  UNL1       -0.0103
     30 C          61.9541   89.3593   12.8867 C.3     1  UNL1        0.0320
@<TRIPOS>BOND
     1    12    13    1
     2    13    14   ar
     3    14    15   ar
     4    15    16   ar
     5    16    17    1
     6    16    18   ar
     7    18    19   ar
     8    19     9    1
     9     9    10    1
    10     9    11    1
    11     9     8    1
    12     8     1    1
    13     1     2    1
    14     1    20    1
    15    20    21    1
    16    21    22    2
    17    22    23    1
    18    23    24    2
    19    24    25    1
    20    25    26    2
    21    26    27    1
    22    27    28    1
    23    28    29    2
    24    29    30    1
    25     1     4    1
    26     4     5    1
    27     4     6    1
    28     4     7    1
    29    19    13   ar
    30    29    21    1
    31    28    23    1
    32     2     3    1
