@<TRIPOS>MOLECULE
*****
 23 25 0 0 0
SMALL
GASTEIGER

@<TRIPOS>ATOM
      1 S          60.6554   89.3106   10.0204 S.3     1  UNL1       -0.0709
      2 C          65.7837   92.7751   11.8378 C.2     1  UNL1        0.1223
      3 C          65.5443   92.1106   13.1610 C.2     1  UNL1        0.0343
      4 C          64.4090   91.1433   13.3200 C.2     1  UNL1        0.0232
      5 C          63.5131   90.8404   12.1557 C.2     1  UNL1        0.0975
      6 N          62.3238   89.9376   12.0126 N.2     1  UNL1       -0.2200
      7 C          61.8282   90.0440   10.6008 C.2     1  UNL1        0.1901
      8 N          62.7112   91.0127    9.8714 N.2     1  UNL1       -0.2236
      9 C          63.7525   91.5048   10.8325 C.2     1  UNL1        0.0863
     10 C          64.8878   92.4722   10.6735 C.3     1  UNL1        0.1112
     11 C          66.9130   94.7263   10.5466 C.3     1  UNL1        0.2520
     12 O          66.9190   93.7425   11.6788 O.2     1  UNL1       -0.4753
     13 C          60.8778   88.1029    9.1590 C.3     1  UNL1        0.0913
     14 C          61.5656   86.8954    9.7234 C.ar    1  UNL1       -0.0109
     15 C          62.4222   86.0384    8.8392 C.ar    1  UNL1       -0.0037
     16 C          63.1101   84.8308    9.4037 C.ar    1  UNL1       -0.0046
     17 C          62.9413   84.4802   10.8524 C.ar    1  UNL1       -0.0228
     18 C          62.0847   85.3372   11.7366 C.ar    1  UNL1       -0.0046
     19 C          61.3968   86.5448   11.1720 C.ar    1  UNL1       -0.0037
     20 C          63.6291   83.2727   11.4168 C.3     1  UNL1        0.0189
     21 C          63.0122   83.5474   12.7562 C.3     1  UNL1        0.0044
     22 C          64.2460   82.9980   10.0774 C.3     1  UNL1        0.0044
     23 C          64.3169   82.0651   11.9813 C.3     1  UNL1        0.0044
@<TRIPOS>BOND
     1    11    12    1
     2    12     2    1
     3     2     3    2
     4     3     4    1
     5     4     5    2
     6     5     6    1
     7     6     7    2
     8     7     1    1
     9     1    13    1
    10    13    14    1
    11    14    15   ar
    12    15    16   ar
    13    16    17   ar
    14    17    20    1
    15    20    21    1
    16    20    22    1
    17    20    23    1
    18    17    18   ar
    19    18    19   ar
    20     7     8    1
    21     8     9    2
    22     9    10    1
    23    10     2    1
    24     9     5    1
    25    19    14   ar
@<TRIPOS>MOLECULE
*****
 23 25 0 0 0
SMALL
GASTEIGER

@<TRIPOS>ATOM
      1 S          60.6412   89.3539    9.9776 S.3     1  UNL1       -0.0709
      2 C          65.4953   91.9535   13.3368 C.2     1  UNL1        0.1223
      3 C          65.8286   92.5961   12.0231 C.2     1  UNL1        0.0343
      4 C          64.9771   92.3252   10.8182 C.2     1  UNL1        0.0232
      5 C          63.7925   91.4116   10.9272 C.2     1  UNL1        0.0975
      6 N          62.7774   90.9597    9.9195 N.2     1  UNL1       -0.2200
      7 C          61.8168   90.0378   10.6104 C.2     1  UNL1        0.1901
      8 N          62.2382   89.9199   12.0452 N.2     1  UNL1       -0.2236
      9 C          63.4592   90.7690   12.2409 C.2     1  UNL1        0.0863
     10 C          64.3107   91.0400   13.4457 C.3     1  UNL1        0.1112
     11 C          67.0144   93.5579   14.7037 C.3     1  UNL1        0.2520
     12 O          66.3468   92.2245   14.5416 O.2     1  UNL1       -0.4753
     13 C          60.8509   88.1386    9.1239 C.3     1  UNL1        0.0913
     14 C          61.5308   86.9294    9.6944 C.ar    1  UNL1       -0.0109
     15 C          62.3950   86.0716    8.8184 C.ar    1  UNL1       -0.0037
     16 C          63.0749   84.8624    9.3890 C.ar    1  UNL1       -0.0046
     17 C          62.8905   84.5109   10.8356 C.ar    1  UNL1       -0.0228
     18 C          62.0263   85.3687   11.7116 C.ar    1  UNL1       -0.0046
     19 C          61.3464   86.5779   11.1409 C.ar    1  UNL1       -0.0037
     20 C          63.5704   83.3017   11.4061 C.3     1  UNL1        0.0189
     21 C          64.2047   83.0300   10.0744 C.3     1  UNL1        0.0044
     22 C          62.9360   83.5735   12.7380 C.3     1  UNL1        0.0044
     23 C          64.2503   82.0925   11.9767 C.3     1  UNL1        0.0044
@<TRIPOS>BOND
     1    11    12    1
     2    12     2    1
     3     2     3    2
     4     3     4    1
     5     4     5    2
     6     5     6    1
     7     6     7    2
     8     7     1    1
     9     1    13    1
    10    13    14    1
    11    14    15   ar
    12    15    16   ar
    13    16    17   ar
    14    17    20    1
    15    20    21    1
    16    20    22    1
    17    20    23    1
    18    17    18   ar
    19    18    19   ar
    20     7     8    1
    21     8     9    2
    22     9    10    1
    23    10     2    1
    24     9     5    1
    25    19    14   ar
@<TRIPOS>MOLECULE
*****
 23 25 0 0 0
SMALL
GASTEIGER

@<TRIPOS>ATOM
      1 S          60.5331   88.3891   10.4886 S.3     1  UNL1       -0.0709
      2 C          63.7807   82.9585   11.7400 C.2     1  UNL1        0.1223
      3 C          64.0834   83.0084   10.2717 C.2     1  UNL1        0.0343
      4 C          63.5456   84.1294    9.4327 C.2     1  UNL1        0.0232
      5 C          62.7050   85.2006   10.0619 C.2     1  UNL1        0.0975
      6 N          62.0417   86.4198    9.4931 N.2     1  UNL1       -0.2200
      7 C          61.3290   87.1234   10.6098 C.2     1  UNL1        0.1901
      8 N          61.5518   86.3391   11.8688 N.2     1  UNL1       -0.2236
      9 C          62.4023   85.1507   11.5302 C.2     1  UNL1        0.0863
     10 C          62.9401   84.0296   12.3692 C.3     1  UNL1        0.1112
     11 C          63.3937   81.0465   13.4560 C.3     1  UNL1        0.2520
     12 O          64.3185   81.8374   12.5790 O.2     1  UNL1       -0.4753
     13 C          61.1848   89.6385    9.9744 C.3     1  UNL1        0.0913
     14 C          62.2914   90.2832   10.7553 C.ar    1  UNL1       -0.0109
     15 C          63.2112   91.2606   10.0856 C.ar    1  UNL1       -0.0037
     16 C          64.3178   91.9053   10.8665 C.ar    1  UNL1       -0.0046
     17 C          64.5046   91.5725   12.3172 C.ar    1  UNL1       -0.0228
     18 C          63.5848   90.5950   12.9869 C.ar    1  UNL1       -0.0046
     19 C          62.4782   89.9503   12.2059 C.ar    1  UNL1       -0.0037
     20 C          65.6112   92.2172   13.0981 C.3     1  UNL1        0.0189
     21 C          65.4408   91.1955   14.1830 C.3     1  UNL1        0.0044
     22 C          65.7816   93.2389   12.0131 C.3     1  UNL1        0.0044
     23 C          66.7178   92.8618   13.8790 C.3     1  UNL1        0.0044
@<TRIPOS>BOND
     1    11    12    1
     2    12     2    1
     3     2     3    2
     4     3     4    1
     5     4     5    2
     6     5     6    1
     7     6     7    2
     8     7     1    1
     9     1    13    1
    10    13    14    1
    11    14    15   ar
    12    15    16   ar
    13    16    17   ar
    14    17    20    1
    15    20    21    1
    16    20    22    1
    17    20    23    1
    18    17    18   ar
    19    18    19   ar
    20     7     8    1
    21     8     9    2
    22     9    10    1
    23    10     2    1
    24     9     5    1
    25    19    14   ar
@<TRIPOS>MOLECULE
*****
 23 25 0 0 0
SMALL
GASTEIGER

@<TRIPOS>ATOM
      1 S          64.2508   89.0008   14.7996 S.3     1  UNL1       -0.0709
      2 C          63.3947   82.6835   13.8181 C.2     1  UNL1        0.1223
      3 C          62.9520   83.1330   12.4573 C.2     1  UNL1        0.0343
      4 C          62.9491   84.5931   12.1138 C.2     1  UNL1        0.0232
      5 C          63.3889   85.6038   13.1312 C.2     1  UNL1        0.0975
      6 N          63.4920   87.0993   13.0808 N.2     1  UNL1       -0.2200
      7 C          63.9985   87.5742   14.4105 C.2     1  UNL1        0.1901
      8 N          64.2084   86.3721   15.2827 N.2     1  UNL1       -0.2236
      9 C          63.8316   85.1542   14.4921 C.2     1  UNL1        0.0863
     10 C          63.8345   83.6941   14.8355 C.3     1  UNL1        0.1112
     11 C          62.3580   80.3134   13.5773 C.3     1  UNL1        0.2520
     12 O          63.3975   81.2233   14.1616 O.2     1  UNL1       -0.4753
     13 C          63.5793   90.1127   14.0495 C.3     1  UNL1        0.0913
     14 C          64.3784   90.9849   13.1272 C.ar    1  UNL1       -0.0109
     15 C          63.8988   91.2349   11.7281 C.ar    1  UNL1       -0.0037
     16 C          64.6979   92.1071   10.8059 C.ar    1  UNL1       -0.0046
     17 C          65.9768   92.7294   11.2828 C.ar    1  UNL1       -0.0228
     18 C          66.4564   92.4795   12.6819 C.ar    1  UNL1       -0.0046
     19 C          65.6572   91.6072   13.6041 C.ar    1  UNL1       -0.0037
     20 C          66.7759   93.6016   10.3605 C.3     1  UNL1        0.0189
     21 C          67.6617   92.4379   10.0274 C.3     1  UNL1        0.0044
     22 C          65.8901   94.7654   10.6937 C.3     1  UNL1        0.0044
     23 C          67.5751   94.4739    9.4383 C.3     1  UNL1        0.0044
@<TRIPOS>BOND
     1    11    12    1
     2    12     2    1
     3     2     3    2
     4     3     4    1
     5     4     5    2
     6     5     6    1
     7     6     7    2
     8     7     1    1
     9     1    13    1
    10    13    14    1
    11    14    15   ar
    12    15    16   ar
    13    16    17   ar
    14    17    20    1
    15    20    21    1
    16    20    22    1
    17    20    23    1
    18    17    18   ar
    19    18    19   ar
    20     7     8    1
    21     8     9    2
    22     9    10    1
    23    10     2    1
    24     9     5    1
    25    19    14   ar
@<TRIPOS>MOLECULE
*****
 23 25 0 0 0
SMALL
GASTEIGER

@<TRIPOS>ATOM
      1 S          64.2361   89.1765   14.6435 S.3     1  UNL1       -0.0709
      2 C          62.9848   83.1081   12.8510 C.2     1  UNL1        0.1223
      3 C          63.4286   82.7893   14.2479 C.2     1  UNL1        0.0343
      4 C          63.8592   83.8928   15.1682 C.2     1  UNL1        0.0232
      5 C          63.8461   85.3149   14.6916 C.2     1  UNL1        0.0975
      6 N          64.2124   86.6033   15.3669 N.2     1  UNL1       -0.2200
      7 C          63.9950   87.7183   14.3873 C.2     1  UNL1        0.1901
      8 N          63.4943   87.1190   13.1066 N.2     1  UNL1       -0.2236
      9 C          63.4023   85.6337   13.2947 C.2     1  UNL1        0.0863
     10 C          62.9716   84.5302   12.3744 C.3     1  UNL1        0.1112
     11 C          62.7459   80.5730   12.3351 C.3     1  UNL1        0.2520
     12 O          62.5542   82.0046   11.9307 O.2     1  UNL1       -0.4753
     13 C          63.5552   90.2095   13.7954 C.3     1  UNL1        0.0913
     14 C          64.3675   91.1052   12.9077 C.ar    1  UNL1       -0.0109
     15 C          65.5999   91.7729   13.4418 C.ar    1  UNL1       -0.0037
     16 C          66.4121   92.6686   12.5542 C.ar    1  UNL1       -0.0046
     17 C          65.9920   92.8965   11.1323 C.ar    1  UNL1       -0.0228
     18 C          64.7596   92.2287   10.5982 C.ar    1  UNL1       -0.0046
     19 C          63.9473   91.3330   11.4859 C.ar    1  UNL1       -0.0037
     20 C          66.8043   93.7921   10.2446 C.3     1  UNL1        0.0189
     21 C          65.9200   94.9495   10.6032 C.3     1  UNL1        0.0044
     22 C          67.6885   92.6347    9.8860 C.3     1  UNL1        0.0044
     23 C          67.6165   94.6878    9.3570 C.3     1  UNL1        0.0044
@<TRIPOS>BOND
     1    11    12    1
     2    12     2    1
     3     2     3    2
     4     3     4    1
     5     4     5    2
     6     5     6    1
     7     6     7    2
     8     7     1    1
     9     1    13    1
    10    13    14    1
    11    14    15   ar
    12    15    16   ar
    13    16    17   ar
    14    17    20    1
    15    20    21    1
    16    20    22    1
    17    20    23    1
    18    17    18   ar
    19    18    19   ar
    20     7     8    1
    21     8     9    2
    22     9    10    1
    23    10     2    1
    24     9     5    1
    25    19    14   ar
@<TRIPOS>MOLECULE
*****
 23 25 0 0 0
SMALL
GASTEIGER

@<TRIPOS>ATOM
      1 S          61.8429   87.7622   10.0758 S.3     1  UNL1       -0.0709
      2 C          63.3727   82.3812   13.2865 C.2     1  UNL1        0.1223
      3 C          63.9145   83.3476   14.2976 C.2     1  UNL1        0.0343
      4 C          63.8203   84.8240   14.0496 C.2     1  UNL1        0.0232
      5 C          63.1843   85.3339   12.7905 C.2     1  UNL1        0.0975
      6 N          62.9507   86.7232   12.2754 N.2     1  UNL1       -0.2200
      7 C          62.2645   86.6154   10.9459 C.2     1  UNL1        0.1901
      8 N          62.0740   85.1595   10.6393 N.2     1  UNL1       -0.2236
      9 C          62.6424   84.3675   11.7794 C.2     1  UNL1        0.0863
     10 C          62.7367   82.8911   12.0274 C.3     1  UNL1        0.1112
     11 C          62.2775   80.0253   13.2864 C.3     1  UNL1        0.2520
     12 O          63.4669   80.9048   13.5345 O.2     1  UNL1       -0.4753
     13 C          61.4667   89.0753   10.6957 C.3     1  UNL1        0.0913
     14 C          62.5287   89.9643   11.2718 C.ar    1  UNL1       -0.0109
     15 C          62.8490   89.8985   12.7357 C.ar    1  UNL1       -0.0037
     16 C          63.9110   90.7875   13.3117 C.ar    1  UNL1       -0.0046
     17 C          64.6527   91.7423   12.4239 C.ar    1  UNL1       -0.0228
     18 C          64.3324   91.8081   10.9599 C.ar    1  UNL1       -0.0046
     19 C          63.2703   90.9190   10.3839 C.ar    1  UNL1       -0.0037
     20 C          65.7147   92.6313   12.9999 C.3     1  UNL1        0.0189
     21 C          65.7349   93.4298   11.7303 C.3     1  UNL1        0.0044
     22 C          65.6944   91.8328   14.2696 C.3     1  UNL1        0.0044
     23 C          66.7766   93.5203   13.5759 C.3     1  UNL1        0.0044
@<TRIPOS>BOND
     1    11    12    1
     2    12     2    1
     3     2     3    2
     4     3     4    1
     5     4     5    2
     6     5     6    1
     7     6     7    2
     8     7     1    1
     9     1    13    1
    10    13    14    1
    11    14    15   ar
    12    15    16   ar
    13    16    17   ar
    14    17    20    1
    15    20    21    1
    16    20    22    1
    17    20    23    1
    18    17    18   ar
    19    18    19   ar
    20     7     8    1
    21     8     9    2
    22     9    10    1
    23    10     2    1
    24     9     5    1
    25    19    14   ar
@<TRIPOS>MOLECULE
*****
 23 25 0 0 0
SMALL
GASTEIGER

@<TRIPOS>ATOM
      1 S          61.6774   89.8127   10.8288 S.3     1  UNL1       -0.0709
      2 C          63.1828   83.5470   11.1104 C.2     1  UNL1        0.1223
      3 C          63.2934   83.6862    9.6210 C.2     1  UNL1        0.0343
      4 C          63.0322   85.0122    8.9702 C.2     1  UNL1        0.0232
      5 C          62.6605   86.1990    9.8088 C.2     1  UNL1        0.0975
      6 N          62.3471   87.6217    9.4517 N.2     1  UNL1       -0.2200
      7 C          62.0428   88.3619   10.7204 C.2     1  UNL1        0.1901
      8 N          62.1681   87.3966   11.8616 N.2     1  UNL1       -0.2236
      9 C          62.5499   86.0598   11.2982 C.2     1  UNL1        0.0863
     10 C          62.8110   84.7338   11.9490 C.3     1  UNL1        0.1112
     11 C          62.5048   81.7020   12.8093 C.3     1  UNL1        0.2520
     12 O          63.4440   82.2210   11.7613 O.2     1  UNL1       -0.4753
     13 C          62.7114   90.8679   10.5695 C.3     1  UNL1        0.0913
     14 C          63.7492   91.1725   11.6087 C.ar    1  UNL1       -0.0109
     15 C          64.8212   92.1825   11.3247 C.ar    1  UNL1       -0.0037
     16 C          65.8590   92.4871   12.3639 C.ar    1  UNL1       -0.0046
     17 C          65.8249   91.7816   13.6873 C.ar    1  UNL1       -0.0228
     18 C          64.7529   90.7716   13.9713 C.ar    1  UNL1       -0.0046
     19 C          63.7150   90.4670   12.9320 C.ar    1  UNL1       -0.0037
     20 C          66.8627   92.0862   14.7265 C.3     1  UNL1        0.0189
     21 C          67.9456   91.8124   13.7254 C.3     1  UNL1        0.0044
     22 C          65.7798   92.3600   15.7277 C.3     1  UNL1        0.0044
     23 C          67.9006   92.3907   15.7658 C.3     1  UNL1        0.0044
@<TRIPOS>BOND
     1    11    12    1
     2    12     2    1
     3     2     3    2
     4     3     4    1
     5     4     5    2
     6     5     6    1
     7     6     7    2
     8     7     1    1
     9     1    13    1
    10    13    14    1
    11    14    15   ar
    12    15    16   ar
    13    16    17   ar
    14    17    20    1
    15    20    21    1
    16    20    22    1
    17    20    23    1
    18    17    18   ar
    19    18    19   ar
    20     7     8    1
    21     8     9    2
    22     9    10    1
    23    10     2    1
    24     9     5    1
    25    19    14   ar
@<TRIPOS>MOLECULE
*****
 23 25 0 0 0
SMALL
GASTEIGER

@<TRIPOS>ATOM
      1 S          63.6833   88.4156   14.9909 S.3     1  UNL1       -0.0709
      2 C          66.0299   93.4725   11.7464 C.2     1  UNL1        0.1223
      3 C          65.0788   93.0091   10.6831 C.2     1  UNL1        0.0343
      4 C          64.2238   91.7990   10.9171 C.2     1  UNL1        0.0232
      5 C          64.3200   91.0523   12.2145 C.2     1  UNL1        0.0975
      6 N          63.6095   89.8347   12.7268 N.2     1  UNL1       -0.2200
      7 C          64.1214   89.5455   14.1067 C.2     1  UNL1        0.1901
      8 N          65.1484   90.5844   14.4473 N.2     1  UNL1       -0.2236
      9 C          65.2711   91.5157   13.2778 C.2     1  UNL1        0.0863
     10 C          66.1260   92.7258   13.0437 C.3     1  UNL1        0.1112
     11 C          66.8870   95.3510   10.1696 C.3     1  UNL1        0.2520
     12 O          66.8848   94.6826   11.5124 O.2     1  UNL1       -0.4753
     13 C          64.5161   87.1717   15.0863 C.3     1  UNL1        0.0913
     14 C          64.2285   86.0058   14.1875 C.ar    1  UNL1       -0.0109
     15 C          64.8605   84.6734   14.4619 C.ar    1  UNL1       -0.0037
     16 C          64.5729   83.5075   13.5630 C.ar    1  UNL1       -0.0046
     17 C          63.6534   83.6741   12.3896 C.ar    1  UNL1       -0.0228
     18 C          63.0214   85.0065   12.1152 C.ar    1  UNL1       -0.0046
     19 C          63.3090   86.1724   13.0141 C.ar    1  UNL1       -0.0037
     20 C          63.3658   82.5082   11.4908 C.3     1  UNL1        0.0189
     21 C          62.4705   81.9197   12.5405 C.3     1  UNL1        0.0044
     22 C          64.2612   83.0968   10.4410 C.3     1  UNL1        0.0044
     23 C          63.0782   81.3423   10.5919 C.3     1  UNL1        0.0044
@<TRIPOS>BOND
     1    11    12    1
     2    12     2    1
     3     2     3    2
     4     3     4    1
     5     4     5    2
     6     5     6    1
     7     6     7    2
     8     7     1    1
     9     1    13    1
    10    13    14    1
    11    14    15   ar
    12    15    16   ar
    13    16    17   ar
    14    17    20    1
    15    20    21    1
    16    20    22    1
    17    20    23    1
    18    17    18   ar
    19    18    19   ar
    20     7     8    1
    21     8     9    2
    22     9    10    1
    23    10     2    1
    24     9     5    1
    25    19    14   ar
@<TRIPOS>MOLECULE
*****
 23 25 0 0 0
SMALL
GASTEIGER

@<TRIPOS>ATOM
      1 S          63.9786   84.1114   15.1043 S.3     1  UNL1       -0.0709
      2 C          64.2491   90.5552   15.2022 C.2     1  UNL1        0.1223
      3 C          63.4072   90.3972   16.4336 C.2     1  UNL1        0.0343
      4 C          63.0168   89.0276   16.9046 C.2     1  UNL1        0.0232
      5 C          63.4683   87.8160   16.1442 C.2     1  UNL1        0.0975
      6 N          63.2416   86.3499   16.3658 N.2     1  UNL1       -0.2200
      7 C          63.9434   85.6017   15.2713 C.2     1  UNL1        0.1901
      8 N          64.6038   86.6055   14.3733 N.2     1  UNL1       -0.2236
      9 C          64.3101   87.9740   14.9128 C.2     1  UNL1        0.0863
     10 C          64.7005   89.3436   14.4419 C.3     1  UNL1        0.1112
     11 C          66.0889   92.2923   14.6129 C.3     1  UNL1        0.2520
     12 O          64.6395   91.9247   14.7312 O.2     1  UNL1       -0.4753
     13 C          64.3433   83.5139   13.7776 C.3     1  UNL1        0.0913
     14 C          63.7102   84.0341   12.5213 C.ar    1  UNL1       -0.0109
     15 C          62.5695   85.0047   12.6026 C.ar    1  UNL1       -0.0037
     16 C          61.9364   85.5250   11.3462 C.ar    1  UNL1       -0.0046
     17 C          62.4440   85.0746   10.0084 C.ar    1  UNL1       -0.0228
     18 C          63.5848   84.1040    9.9271 C.ar    1  UNL1       -0.0046
     19 C          64.2179   83.5837   11.1836 C.ar    1  UNL1       -0.0037
     20 C          61.8109   85.5948    8.7521 C.3     1  UNL1        0.0189
     21 C          60.7569   86.2827    9.5680 C.3     1  UNL1        0.0044
     22 C          62.8650   84.9069    7.9361 C.3     1  UNL1        0.0044
     23 C          61.1778   86.1151    7.4957 C.3     1  UNL1        0.0044
@<TRIPOS>BOND
     1    11    12    1
     2    12     2    1
     3     2     3    2
     4     3     4    1
     5     4     5    2
     6     5     6    1
     7     6     7    2
     8     7     1    1
     9     1    13    1
    10    13    14    1
    11    14    15   ar
    12    15    16   ar
    13    16    17   ar
    14    17    20    1
    15    20    21    1
    16    20    22    1
    17    20    23    1
    18    17    18   ar
    19    18    19   ar
    20     7     8    1
    21     8     9    2
    22     9    10    1
    23    10     2    1
    24     9     5    1
    25    19    14   ar
