@<TRIPOS>MOLECULE
*****
 36 39 0 0 0
SMALL
GASTEIGER

@<TRIPOS>ATOM
      1 C          63.6282   90.4316   15.1973 C.ar    1  UNL1        0.1535
      2 C          64.4959   91.2841   16.0750 C.ar    1  UNL1        0.0574
      3 C          65.6898   91.9841   15.4966 C.ar    1  UNL1        0.0888
      4 N          66.5575   92.8365   16.3743 N.ar    1  UNL1       -0.2238
      5 C          67.7514   93.5365   15.7958 C.ar    1  UNL1        0.2000
      6 N          68.0776   93.3840   14.3397 N.ar    1  UNL1       -0.2089
      7 C          67.2099   92.5316   13.4620 C.ar    1  UNL1        0.1353
      8 C          66.0160   91.8316   14.0404 C.ar    1  UNL1        0.0508
      9 C          65.1482   90.9792   13.1627 C.ar    1  UNL1        0.0221
     10 C          63.9543   90.2792   13.7412 C.ar    1  UNL1        0.0852
     11 N          63.0865   89.4267   12.8635 N.am    1  UNL1       -0.2762
     12 C          62.6325   89.9422   11.5300 C.2     1  UNL1        0.2769
     13 O          63.0462   91.3101   11.0742 O.2     1  UNL1       -0.2674
     14 H          62.8150   88.5289   13.1626 H       1  UNL1        0.1553
     15 C          61.7647   89.0898   10.6523 C.2     1  UNL1        0.1905
     16 F          61.3005   89.6101    9.3243 F       1  UNL1       -0.1997
     17 C          61.3612   87.7170   11.1026 C.2     1  UNL1        0.0256
     18 C          60.4935   86.8646   10.2249 C.3     1  UNL1        0.1013
     19 N          61.0908   86.1431    9.0534 N.3     1  UNL1       -0.2689
     20 C          60.2800   85.9331    7.8090 C.3     1  UNL1        0.0724
     21 C          60.8774   85.2115    6.6375 C.3     1  UNL1        0.0174
     22 C          62.2855   84.6999    6.7103 C.3     1  UNL1        0.0029
     23 C          63.0964   84.9099    7.9547 C.3     1  UNL1        0.0174
     24 C          62.4991   85.6315    9.1262 C.3     1  UNL1        0.0724
     25 C          62.6220   88.5316   16.6559 C.3     1  UNL1        0.2525
     26 O          62.4342   89.7316   15.7758 O.3     1  UNL1       -0.4701
     27 N          67.5360   92.3792   12.0058 N.pl3   1  UNL1       -0.2978
     28 H          67.9645   91.5544   11.6811 H       1  UNL1        0.1536
     29 C          67.2094   93.4832   11.0445 C.ar    1  UNL1        0.0504
     30 C          67.7648   93.4535    9.6513 C.ar    1  UNL1        0.0170
     31 C          67.4381   94.5576    8.6900 C.ar    1  UNL1        0.0318
     32 C          66.5560   95.6914    9.1217 C.ar    1  UNL1        0.1507
     33 F          66.2293   96.7956    8.1602 F       1  UNL1       -0.2033
     34 C          66.0006   95.7212   10.5147 C.ar    1  UNL1        0.0863
     35 CL         65.1185   96.8550   10.9464 Cl      1  UNL1       -0.0799
     36 C          66.3273   94.6171   11.4762 C.ar    1  UNL1        0.0283
@<TRIPOS>BOND
     1    25    26    1
     2    26     1    1
     3     1     2   ar
     4     2     3   ar
     5     3     4   ar
     6     4     5   ar
     7     5     6   ar
     8     6     7   ar
     9     7    27    1
    10    27    29    1
    11    29    30   ar
    12    30    31   ar
    13    31    32   ar
    14    32    33    1
    15    32    34   ar
    16    34    35    1
    17    34    36   ar
    18     7     8   ar
    19     8     9   ar
    20     9    10   ar
    21    10    11    1
    22    11    12   am
    23    12    13    2
    24    12    15    1
    25    15    16    1
    26    15    17    2
    27    17    18    1
    28    18    19    1
    29    19    20    1
    30    20    21    1
    31    21    22    1
    32    22    23    1
    33    23    24    1
    34    10     1   ar
    35    24    19    1
    36     8     3   ar
    37    36    29   ar
    38    27    28    1
    39    11    14    1
@<TRIPOS>MOLECULE
*****
 36 39 0 0 0
SMALL
GASTEIGER

@<TRIPOS>ATOM
      1 C          63.4563   84.9602   15.7460 C.ar    1  UNL1        0.1535
      2 C          63.0016   83.5484   15.5223 C.ar    1  UNL1        0.0574
      3 C          62.9893   82.9752   14.1361 C.ar    1  UNL1        0.0888
      4 N          62.5346   81.5634   13.9124 N.ar    1  UNL1       -0.2238
      5 C          62.5224   80.9903   12.5263 C.ar    1  UNL1        0.2000
      6 N          62.9649   81.8288   11.3640 N.ar    1  UNL1       -0.2089
      7 C          63.4196   83.2406   11.5877 C.ar    1  UNL1        0.1353
      8 C          63.4318   83.8138   12.9738 C.ar    1  UNL1        0.0508
      9 C          63.8866   85.2256   13.1976 C.ar    1  UNL1        0.0221
     10 C          63.8988   85.7988   14.5837 C.ar    1  UNL1        0.0852
     11 N          64.3535   87.2106   14.8076 N.am    1  UNL1       -0.2762
     12 C          63.9200   88.2961   13.8675 C.2     1  UNL1        0.2769
     13 O          63.0317   87.9698   12.7036 O.2     1  UNL1       -0.2674
     14 H          64.9365   87.4248   15.5715 H       1  UNL1        0.1553
     15 C          64.3747   89.7079   14.0913 C.2     1  UNL1        0.1905
     16 F          64.5717   90.2199   15.4873 F       1  UNL1       -0.1997
     17 C          64.6323   90.6076   12.9190 C.2     1  UNL1        0.0256
     18 C          65.0869   92.0194   13.1428 C.3     1  UNL1        0.1013
     19 N          66.3215   92.2906   13.9505 N.3     1  UNL1       -0.2689
     20 C          67.6734   91.9733   13.3835 C.3     1  UNL1        0.0724
     21 C          68.9079   92.2446   14.1912 C.3     1  UNL1        0.0174
     22 C          68.7905   92.8332   15.5658 C.3     1  UNL1        0.0029
     23 C          67.4385   93.1505   16.1329 C.3     1  UNL1        0.0174
     24 C          66.2040   92.8792   15.3252 C.3     1  UNL1        0.0724
     25 C          62.3626   86.4439   17.5770 C.3     1  UNL1        0.2525
     26 O          63.4685   85.5334   17.1322 O.3     1  UNL1       -0.4701
     27 N          63.8621   84.0792   10.4254 N.pl3   1  UNL1       -0.2978
     28 H          64.8155   84.1214   10.1836 H       1  UNL1        0.1536
     29 C          62.8520   84.8534    9.6316 C.ar    1  UNL1        0.0504
     30 C          62.7810   84.6871    8.1425 C.ar    1  UNL1        0.0170
     31 C          61.7709   85.4614    7.3486 C.ar    1  UNL1        0.0318
     32 C          60.8318   86.4019    8.0438 C.ar    1  UNL1        0.1507
     33 F          59.8217   87.1762    7.2499 F       1  UNL1       -0.2033
     34 C          60.9027   86.5683    9.5329 C.ar    1  UNL1        0.0863
     35 CL         59.9636   87.5089   10.2280 Cl      1  UNL1       -0.0799
     36 C          61.9129   85.7940   10.3268 C.ar    1  UNL1        0.0283
@<TRIPOS>BOND
     1    25    26    1
     2    26     1    1
     3     1     2   ar
     4     2     3   ar
     5     3     4   ar
     6     4     5   ar
     7     5     6   ar
     8     6     7   ar
     9     7    27    1
    10    27    29    1
    11    29    30   ar
    12    30    31   ar
    13    31    32   ar
    14    32    33    1
    15    32    34   ar
    16    34    35    1
    17    34    36   ar
    18     7     8   ar
    19     8     9   ar
    20     9    10   ar
    21    10    11    1
    22    11    12   am
    23    12    13    2
    24    12    15    1
    25    15    16    1
    26    15    17    2
    27    17    18    1
    28    18    19    1
    29    19    20    1
    30    20    21    1
    31    21    22    1
    32    22    23    1
    33    23    24    1
    34    10     1   ar
    35    24    19    1
    36     8     3   ar
    37    36    29   ar
    38    27    28    1
    39    11    14    1
@<TRIPOS>MOLECULE
*****
 36 39 0 0 0
SMALL
GASTEIGER

@<TRIPOS>ATOM
      1 C          63.5590   85.6047   15.9073 C.ar    1  UNL1        0.1535
      2 C          62.9907   84.2215   15.7899 C.ar    1  UNL1        0.0574
      3 C          62.8544   83.5786   14.4415 C.ar    1  UNL1        0.0888
      4 N          62.2861   82.1954   14.3241 N.ar    1  UNL1       -0.2238
      5 C          62.1498   81.5526   12.9758 C.ar    1  UNL1        0.2000
      6 N          62.5817   82.2930   11.7448 N.ar    1  UNL1       -0.2089
      7 C          63.1499   83.6761   11.8622 C.ar    1  UNL1        0.1353
      8 C          63.2863   84.3190   13.2105 C.ar    1  UNL1        0.0508
      9 C          63.8545   85.7022   13.3280 C.ar    1  UNL1        0.0221
     10 C          63.9909   86.3451   14.6763 C.ar    1  UNL1        0.0852
     11 N          64.5591   87.7283   14.7938 N.am    1  UNL1       -0.2762
     12 C          64.0440   88.8280   13.9133 C.2     1  UNL1        0.2769
     13 O          62.9605   88.5444   12.9153 O.2     1  UNL1       -0.2674
     14 H          65.2702   87.9144   15.4488 H       1  UNL1        0.1553
     15 C          64.6122   90.2112   14.0307 C.2     1  UNL1        0.1905
     16 F          64.9466   90.7725   15.3809 F       1  UNL1       -0.1997
     17 C          64.8460   91.0331   12.7979 C.2     1  UNL1        0.0256
     18 C          65.4142   92.4163   12.9153 C.3     1  UNL1        0.1013
     19 N          66.1408   93.0297   11.7551 N.3     1  UNL1       -0.2689
     20 C          67.0368   92.1841   10.8995 C.3     1  UNL1        0.0724
     21 C          67.7633   92.7974    9.7394 C.3     1  UNL1        0.0174
     22 C          67.5939   94.2563    9.4348 C.3     1  UNL1        0.0029
     23 C          66.6978   95.1020   10.2905 C.3     1  UNL1        0.0174
     24 C          65.9713   94.4887   11.4506 C.3     1  UNL1        0.0724
     25 C          62.4705   86.6570   18.0187 C.3     1  UNL1        0.2525
     26 O          63.6953   86.2476   17.2557 O.3     1  UNL1       -0.4701
     27 N          63.5818   84.4165   10.6312 N.pl3   1  UNL1       -0.2978
     28 H          64.5226   84.3852   10.3426 H       1  UNL1        0.1536
     29 C          62.5804   85.2045    9.8399 C.ar    1  UNL1        0.0504
     30 C          62.4702   85.0035    8.3575 C.ar    1  UNL1        0.0170
     31 C          61.4688   85.7915    7.5661 C.ar    1  UNL1        0.0318
     32 C          60.5776   86.7806    8.2572 C.ar    1  UNL1        0.1507
     33 F          59.5762   87.5686    7.4658 F       1  UNL1       -0.2033
     34 C          60.6878   86.9816    9.7395 C.ar    1  UNL1        0.0863
     35 CL         59.7966   87.9707   10.4306 Cl      1  UNL1       -0.0799
     36 C          61.6893   86.1936   10.5309 C.ar    1  UNL1        0.0283
@<TRIPOS>BOND
     1    25    26    1
     2    26     1    1
     3     1     2   ar
     4     2     3   ar
     5     3     4   ar
     6     4     5   ar
     7     5     6   ar
     8     6     7   ar
     9     7    27    1
    10    27    29    1
    11    29    30   ar
    12    30    31   ar
    13    31    32   ar
    14    32    33    1
    15    32    34   ar
    16    34    35    1
    17    34    36   ar
    18     7     8   ar
    19     8     9   ar
    20     9    10   ar
    21    10    11    1
    22    11    12   am
    23    12    13    2
    24    12    15    1
    25    15    16    1
    26    15    17    2
    27    17    18    1
    28    18    19    1
    29    19    20    1
    30    20    21    1
    31    21    22    1
    32    22    23    1
    33    23    24    1
    34    10     1   ar
    35    24    19    1
    36     8     3   ar
    37    36    29   ar
    38    27    28    1
    39    11    14    1
@<TRIPOS>MOLECULE
*****
 36 39 0 0 0
SMALL
GASTEIGER

@<TRIPOS>ATOM
      1 C          65.6239   92.3742   11.4209 C.ar    1  UNL1        0.1535
      2 C          66.4941   93.0193   12.4585 C.ar    1  UNL1        0.0574
      3 C          66.2081   92.8056   13.9154 C.ar    1  UNL1        0.0888
      4 N          67.0782   93.4507   14.9530 N.ar    1  UNL1       -0.2238
      5 C          66.7922   93.2370   16.4099 C.ar    1  UNL1        0.2000
      6 N          65.6361   92.3782   16.8292 N.ar    1  UNL1       -0.2089
      7 C          64.7659   91.7331   15.7916 C.ar    1  UNL1        0.1353
      8 C          65.0519   91.9468   14.3347 C.ar    1  UNL1        0.0508
      9 C          64.1818   91.3017   13.2970 C.ar    1  UNL1        0.0221
     10 C          64.4678   91.5154   11.8402 C.ar    1  UNL1        0.0852
     11 N          63.5976   90.8702   10.8025 N.am    1  UNL1       -0.2762
     12 C          62.4955   89.9421   11.2196 C.2     1  UNL1        0.2769
     13 O          62.2636   89.6591   12.6743 O.2     1  UNL1       -0.2674
     14 H          63.7498   91.0560    9.8477 H       1  UNL1        0.1553
     15 C          61.6254   89.2970   10.1820 C.2     1  UNL1        0.1905
     16 F          61.2664   90.0462    8.9331 F       1  UNL1       -0.1997
     17 C          61.1142   87.9027   10.3933 C.2     1  UNL1        0.0256
     18 C          60.2441   87.2576    9.3557 C.3     1  UNL1        0.1013
     19 N          60.8400   86.2993    8.3675 N.3     1  UNL1       -0.2689
     20 C          62.2776   85.8899    8.4930 C.3     1  UNL1        0.0724
     21 C          62.8735   84.9317    7.5047 C.3     1  UNL1        0.0174
     22 C          62.0319   84.3828    6.3911 C.3     1  UNL1        0.0029
     23 C          60.5942   84.7921    6.2655 C.3     1  UNL1        0.0174
     24 C          59.9983   85.7504    7.2538 C.3     1  UNL1        0.0724
     25 C          67.0354   93.4863    9.5445 C.3     1  UNL1        0.2525
     26 O          65.9099   92.5878    9.9639 O.3     1  UNL1       -0.4701
     27 N          63.6098   90.8743   16.2109 N.pl3   1  UNL1       -0.2978
     28 H          62.7965   91.2893   16.5793 H       1  UNL1        0.1536
     29 C          63.6926   89.3834   16.0688 C.ar    1  UNL1        0.0504
     30 C          64.4175   88.7803   14.9021 C.ar    1  UNL1        0.0170
     31 C          64.5004   87.2894   14.7600 C.ar    1  UNL1        0.0318
     32 C          63.8584   86.4015   15.7845 C.ar    1  UNL1        0.1507
     33 F          63.9413   84.9105   15.6424 F       1  UNL1       -0.2033
     34 C          63.1336   87.0045   16.9511 C.ar    1  UNL1        0.0863
     35 CL         62.4917   86.1166   17.9756 Cl      1  UNL1       -0.0799
     36 C          63.0507   88.4955   17.0932 C.ar    1  UNL1        0.0283
@<TRIPOS>BOND
     1    25    26    1
     2    26     1    1
     3     1     2   ar
     4     2     3   ar
     5     3     4   ar
     6     4     5   ar
     7     5     6   ar
     8     6     7   ar
     9     7    27    1
    10    27    29    1
    11    29    30   ar
    12    30    31   ar
    13    31    32   ar
    14    32    33    1
    15    32    34   ar
    16    34    35    1
    17    34    36   ar
    18     7     8   ar
    19     8     9   ar
    20     9    10   ar
    21    10    11    1
    22    11    12   am
    23    12    13    2
    24    12    15    1
    25    15    16    1
    26    15    17    2
    27    17    18    1
    28    18    19    1
    29    19    20    1
    30    20    21    1
    31    21    22    1
    32    22    23    1
    33    23    24    1
    34    10     1   ar
    35    24    19    1
    36     8     3   ar
    37    36    29   ar
    38    27    28    1
    39    11    14    1
@<TRIPOS>MOLECULE
*****
 36 39 0 0 0
SMALL
GASTEIGER

@<TRIPOS>ATOM
      1 C          63.4562   89.3691   15.7559 C.ar    1  UNL1        0.1535
      2 C          63.8721   90.6280   16.4573 C.ar    1  UNL1        0.0574
      3 C          64.9224   91.5118   15.8522 C.ar    1  UNL1        0.0888
      4 N          65.3383   92.7707   16.5536 N.ar    1  UNL1       -0.2238
      5 C          66.3885   93.6544   15.9485 C.ar    1  UNL1        0.2000
      6 N          67.0227   93.2791   14.6420 N.ar    1  UNL1       -0.2089
      7 C          66.6067   92.0202   13.9406 C.ar    1  UNL1        0.1353
      8 C          65.5566   91.1365   14.5457 C.ar    1  UNL1        0.0508
      9 C          65.1405   89.8775   13.8443 C.ar    1  UNL1        0.0221
     10 C          64.0904   88.9938   14.4494 C.ar    1  UNL1        0.0852
     11 N          63.6743   87.7348   13.7480 N.am    1  UNL1       -0.2762
     12 C          64.3360   86.4326   14.0891 C.2     1  UNL1        0.2769
     13 O          65.4137   86.3894   15.1316 O.2     1  UNL1       -0.2674
     14 H          62.9670   87.7632   13.0638 H       1  UNL1        0.1553
     15 C          63.9201   85.1736   13.3878 C.2     1  UNL1        0.1905
     16 F          64.5046   83.8559   13.8025 F       1  UNL1       -0.1997
     17 C          62.9196   85.2323   12.2717 C.2     1  UNL1        0.0256
     18 C          62.5036   83.9733   11.5704 C.3     1  UNL1        0.1013
     19 N          62.4195   82.6835   12.3315 N.3     1  UNL1       -0.2689
     20 C          62.9163   81.4121   11.7099 C.3     1  UNL1        0.0724
     21 C          62.8322   80.1222   12.4710 C.3     1  UNL1        0.0174
     22 C          62.2513   80.1039   13.8538 C.3     1  UNL1        0.0029
     23 C          61.7544   81.3754   14.4755 C.3     1  UNL1        0.0174
     24 C          61.8385   82.6652   13.7144 C.3     1  UNL1        0.0724
     25 C          62.7852   87.4750   17.4028 C.3     1  UNL1        0.2525
     26 O          62.4059   88.4853   16.3610 O.3     1  UNL1       -0.4701
     27 N          67.2409   91.6449   12.6340 N.pl3   1  UNL1       -0.2978
     28 H          67.7029   90.7805   12.5414 H       1  UNL1        0.1536
     29 C          67.1712   92.5867   11.4686 C.ar    1  UNL1        0.0504
     30 C          68.0063   92.3333   10.2486 C.ar    1  UNL1        0.0170
     31 C          67.9365   93.2750    9.0832 C.ar    1  UNL1        0.0318
     32 C          67.0318   94.4702    9.1377 C.ar    1  UNL1        0.1507
     33 F          66.9621   95.4120    7.9722 F       1  UNL1       -0.2033
     34 C          66.1967   94.7236   10.3577 C.ar    1  UNL1        0.0863
     35 CL         65.2919   95.9188   10.4123 Cl      1  UNL1       -0.0799
     36 C          66.2664   93.7818   11.5232 C.ar    1  UNL1        0.0283
@<TRIPOS>BOND
     1    25    26    1
     2    26     1    1
     3     1     2   ar
     4     2     3   ar
     5     3     4   ar
     6     4     5   ar
     7     5     6   ar
     8     6     7   ar
     9     7    27    1
    10    27    29    1
    11    29    30   ar
    12    30    31   ar
    13    31    32   ar
    14    32    33    1
    15    32    34   ar
    16    34    35    1
    17    34    36   ar
    18     7     8   ar
    19     8     9   ar
    20     9    10   ar
    21    10    11    1
    22    11    12   am
    23    12    13    2
    24    12    15    1
    25    15    16    1
    26    15    17    2
    27    17    18    1
    28    18    19    1
    29    19    20    1
    30    20    21    1
    31    21    22    1
    32    22    23    1
    33    23    24    1
    34    10     1   ar
    35    24    19    1
    36     8     3   ar
    37    36    29   ar
    38    27    28    1
    39    11    14    1
@<TRIPOS>MOLECULE
*****
 36 39 0 0 0
SMALL
GASTEIGER

@<TRIPOS>ATOM
      1 C          64.1699   89.7112   14.9105 C.ar    1  UNL1        0.1535
      2 C          65.1397   90.4243   15.8055 C.ar    1  UNL1        0.0574
      3 C          65.8133   91.6786   15.3332 C.ar    1  UNL1        0.0888
      4 N          66.7831   92.3917   16.2281 N.ar    1  UNL1       -0.2238
      5 C          67.4567   93.6460   15.7558 C.ar    1  UNL1        0.2000
      6 N          67.1604   94.1871   14.3885 N.ar    1  UNL1       -0.2089
      7 C          66.1906   93.4740   13.4936 C.ar    1  UNL1        0.1353
      8 C          65.5171   92.2198   13.9659 C.ar    1  UNL1        0.0508
      9 C          64.5472   91.5066   13.0710 C.ar    1  UNL1        0.0221
     10 C          63.8737   90.2524   13.5433 C.ar    1  UNL1        0.0852
     11 N          62.9038   89.5392   12.6483 N.am    1  UNL1       -0.2762
     12 C          62.7292   89.9837   11.2264 C.2     1  UNL1        0.2769
     13 O          63.5244   91.1413   10.6993 O.2     1  UNL1       -0.2674
     14 H          62.3819   88.7795   12.9942 H       1  UNL1        0.1553
     15 C          61.7594   89.2706   10.3314 C.2     1  UNL1        0.1905
     16 F          61.0753   90.0145    9.2231 F       1  UNL1       -0.1997
     17 C          61.4737   87.8136   10.5448 C.2     1  UNL1        0.0256
     18 C          60.5040   87.1005    9.6499 C.3     1  UNL1        0.1013
     19 N          61.0099   86.2055    8.5576 N.3     1  UNL1       -0.2689
     20 C          60.0896   85.7747    7.4543 C.3     1  UNL1        0.0724
     21 C          60.5956   84.8797    6.3621 C.3     1  UNL1        0.0174
     22 C          62.0219   84.4156    6.3731 C.3     1  UNL1        0.0029
     23 C          62.9423   84.8464    7.4765 C.3     1  UNL1        0.0174
     24 C          62.4363   85.7414    8.5687 C.3     1  UNL1        0.0724
     25 C          63.0471   88.3383   16.8091 C.3     1  UNL1        0.2525
     26 O          63.4963   88.4569   15.3828 O.3     1  UNL1       -0.4701
     27 N          65.8944   94.0152   12.1263 N.pl3   1  UNL1       -0.2978
     28 H          65.1468   94.6425   11.9966 H       1  UNL1        0.1536
     29 C          66.7372   93.6007   10.9568 C.ar    1  UNL1        0.0504
     30 C          67.5125   92.3175   11.0084 C.ar    1  UNL1        0.0170
     31 C          68.3553   91.9030    9.8389 C.ar    1  UNL1        0.0318
     32 C          68.4229   92.7715    8.6178 C.ar    1  UNL1        0.1507
     33 F          69.2657   92.3569    7.4483 F       1  UNL1       -0.2033
     34 C          67.6476   94.0545    8.5662 C.ar    1  UNL1        0.0863
     35 CL         67.7152   94.9230    7.3451 Cl      1  UNL1       -0.0799
     36 C          66.8048   94.4692    9.7357 C.ar    1  UNL1        0.0283
@<TRIPOS>BOND
     1    25    26    1
     2    26     1    1
     3     1     2   ar
     4     2     3   ar
     5     3     4   ar
     6     4     5   ar
     7     5     6   ar
     8     6     7   ar
     9     7    27    1
    10    27    29    1
    11    29    30   ar
    12    30    31   ar
    13    31    32   ar
    14    32    33    1
    15    32    34   ar
    16    34    35    1
    17    34    36   ar
    18     7     8   ar
    19     8     9   ar
    20     9    10   ar
    21    10    11    1
    22    11    12   am
    23    12    13    2
    24    12    15    1
    25    15    16    1
    26    15    17    2
    27    17    18    1
    28    18    19    1
    29    19    20    1
    30    20    21    1
    31    21    22    1
    32    22    23    1
    33    23    24    1
    34    10     1   ar
    35    24    19    1
    36     8     3   ar
    37    36    29   ar
    38    27    28    1
    39    11    14    1
@<TRIPOS>MOLECULE
*****
 36 39 0 0 0
SMALL
GASTEIGER

@<TRIPOS>ATOM
      1 C          63.8025   88.9915   13.2080 C.ar    1  UNL1        0.1535
      2 C          64.6502   89.4345   14.3634 C.ar    1  UNL1        0.0574
      3 C          65.2729   90.7992   14.3571 C.ar    1  UNL1        0.0888
      4 N          66.1206   91.2421   15.5126 N.ar    1  UNL1       -0.2238
      5 C          66.7433   92.6067   15.5062 C.ar    1  UNL1        0.2000
      6 N          66.5183   93.5284   14.3443 N.ar    1  UNL1       -0.2089
      7 C          65.6706   93.0854   13.1888 C.ar    1  UNL1        0.1353
      8 C          65.0479   91.7208   13.1952 C.ar    1  UNL1        0.0508
      9 C          64.2002   91.2778   12.0397 C.ar    1  UNL1        0.0221
     10 C          63.5775   89.9132   12.0461 C.ar    1  UNL1        0.0852
     11 N          62.7298   89.4701   10.8905 N.am    1  UNL1       -0.2762
     12 C          61.2560   89.2629   11.0776 C.2     1  UNL1        0.2769
     13 O          60.6299   89.4987   12.4202 O.2     1  UNL1       -0.2674
     14 H          63.1407   89.3154   10.0094 H       1  UNL1        0.1553
     15 C          60.4083   88.8199    9.9222 C.2     1  UNL1        0.1905
     16 F          59.4660   87.6640   10.0831 F       1  UNL1       -0.1997
     17 C          60.5029   89.5328    8.6058 C.2     1  UNL1        0.0256
     18 C          59.6552   89.0898    7.4504 C.3     1  UNL1        0.1013
     19 N          59.3059   90.0600    6.3610 N.3     1  UNL1       -0.2689
     20 C          57.8700   90.3989    6.0904 C.3     1  UNL1        0.0724
     21 C          57.5207   91.3691    5.0011 C.3     1  UNL1        0.0174
     22 C          58.6074   92.0004    4.1822 C.3     1  UNL1        0.0029
     23 C          60.0434   91.6615    4.4527 C.3     1  UNL1        0.0174
     24 C          60.3927   90.6913    5.5421 C.3     1  UNL1        0.0724
     25 C          63.8686   86.4914   13.9116 C.3     1  UNL1        0.2525
     26 O          63.1797   87.6269   13.2143 O.3     1  UNL1       -0.4701
     27 N          65.4456   94.0070   12.0269 N.pl3   1  UNL1       -0.2978
     28 H          64.7322   94.6843   12.0668 H       1  UNL1        0.1536
     29 C          66.3076   93.8968   10.8043 C.ar    1  UNL1        0.0504
     30 C          67.0788   92.6373   10.5414 C.ar    1  UNL1        0.0170
     31 C          67.9408   92.5271    9.3188 C.ar    1  UNL1        0.0318
     32 C          68.0316   93.6763    8.3591 C.ar    1  UNL1        0.1507
     33 F          68.8937   93.5660    7.1364 F       1  UNL1       -0.2033
     34 C          67.2605   94.9357    8.6220 C.ar    1  UNL1        0.0863
     35 CL         67.3514   96.0849    7.6622 Cl      1  UNL1       -0.0799
     36 C          66.3985   95.0460    9.8446 C.ar    1  UNL1        0.0283
@<TRIPOS>BOND
     1    25    26    1
     2    26     1    1
     3     1     2   ar
     4     2     3   ar
     5     3     4   ar
     6     4     5   ar
     7     5     6   ar
     8     6     7   ar
     9     7    27    1
    10    27    29    1
    11    29    30   ar
    12    30    31   ar
    13    31    32   ar
    14    32    33    1
    15    32    34   ar
    16    34    35    1
    17    34    36   ar
    18     7     8   ar
    19     8     9   ar
    20     9    10   ar
    21    10    11    1
    22    11    12   am
    23    12    13    2
    24    12    15    1
    25    15    16    1
    26    15    17    2
    27    17    18    1
    28    18    19    1
    29    19    20    1
    30    20    21    1
    31    21    22    1
    32    22    23    1
    33    23    24    1
    34    10     1   ar
    35    24    19    1
    36     8     3   ar
    37    36    29   ar
    38    27    28    1
    39    11    14    1
@<TRIPOS>MOLECULE
*****
 36 39 0 0 0
SMALL
GASTEIGER

@<TRIPOS>ATOM
      1 C          62.7808   89.7537   11.5202 C.ar    1  UNL1        0.1535
      2 C          63.4531   89.4022   12.8142 C.ar    1  UNL1        0.0574
      3 C          63.6036   87.9645   13.2149 C.ar    1  UNL1        0.0888
      4 N          64.2759   87.6131   14.5089 N.ar    1  UNL1       -0.2238
      5 C          64.4264   86.1754   14.9095 C.ar    1  UNL1        0.2000
      6 N          63.9047   85.0893   14.0161 N.ar    1  UNL1       -0.2089
      7 C          63.2325   85.4408   12.7221 C.ar    1  UNL1        0.1353
      8 C          63.0819   86.8784   12.3215 C.ar    1  UNL1        0.0508
      9 C          62.4097   87.2299   11.0274 C.ar    1  UNL1        0.0221
     10 C          62.2592   88.6675   10.6268 C.ar    1  UNL1        0.0852
     11 N          61.5869   89.0191    9.3327 N.am    1  UNL1       -0.2762
     12 C          60.2906   88.3635    8.9587 C.2     1  UNL1        0.2769
     13 O          59.6666   87.3564    9.8787 O.2     1  UNL1       -0.2674
     14 H          61.9965   89.6801    8.7289 H       1  UNL1        0.1553
     15 C          59.6184   88.7150    7.6647 C.2     1  UNL1        0.1905
     16 F          58.8268   87.6778    6.9248 F       1  UNL1       -0.1997
     17 C          59.7377   90.1038    7.1105 C.2     1  UNL1        0.0256
     18 C          59.0655   90.4553    5.8165 C.3     1  UNL1        0.1013
     19 N          59.8180   91.2104    4.7613 N.3     1  UNL1       -0.2689
     20 C          61.2770   90.9400    4.5421 C.3     1  UNL1        0.0724
     21 C          62.0295   91.6952    3.4869 C.3     1  UNL1        0.0174
     22 C          61.3230   92.7207    2.6508 C.3     1  UNL1        0.0029
     23 C          59.8639   92.9911    2.8700 C.3     1  UNL1        0.0174
     24 C          59.1114   92.2360    3.9252 C.3     1  UNL1        0.0724
     25 C          63.7498   91.8932   10.4094 C.3     1  UNL1        0.2525
     26 O          62.6303   91.1914   11.1195 O.3     1  UNL1       -0.4701
     27 N          62.7108   84.3546   11.8287 N.pl3   1  UNL1       -0.2978
     28 H          62.4526   84.5615   10.9015 H       1  UNL1        0.1536
     29 C          62.5825   82.9533   12.3481 C.ar    1  UNL1        0.0504
     30 C          62.2098   82.7158   13.7815 C.ar    1  UNL1        0.0170
     31 C          62.0815   81.3145   14.3009 C.ar    1  UNL1        0.0318
     32 C          62.3260   80.1506   13.3868 C.ar    1  UNL1        0.1507
     33 F          62.1977   78.7492   13.9062 F       1  UNL1       -0.2033
     34 C          62.6987   80.3880   11.9534 C.ar    1  UNL1        0.0863
     35 CL         62.9431   79.2240   11.0394 Cl      1  UNL1       -0.0799
     36 C          62.8270   81.7894   11.4340 C.ar    1  UNL1        0.0283
@<TRIPOS>BOND
     1    25    26    1
     2    26     1    1
     3     1     2   ar
     4     2     3   ar
     5     3     4   ar
     6     4     5   ar
     7     5     6   ar
     8     6     7   ar
     9     7    27    1
    10    27    29    1
    11    29    30   ar
    12    30    31   ar
    13    31    32   ar
    14    32    33    1
    15    32    34   ar
    16    34    35    1
    17    34    36   ar
    18     7     8   ar
    19     8     9   ar
    20     9    10   ar
    21    10    11    1
    22    11    12   am
    23    12    13    2
    24    12    15    1
    25    15    16    1
    26    15    17    2
    27    17    18    1
    28    18    19    1
    29    19    20    1
    30    20    21    1
    31    21    22    1
    32    22    23    1
    33    23    24    1
    34    10     1   ar
    35    24    19    1
    36     8     3   ar
    37    36    29   ar
    38    27    28    1
    39    11    14    1
