@<TRIPOS>MOLECULE
*****
 38 41 0 0 0
SMALL
GASTEIGER

@<TRIPOS>ATOM
      1 N          59.8011   88.9825    7.7280 N.am    1  UNL1       -0.2680
      2 C          60.7734   89.2149    8.8463 C.2     1  UNL1        0.3092
      3 O          61.6983   90.3950    8.8029 O.2     1  UNL1       -0.2521
      4 N          60.8209   88.2671   10.0080 N.am    1  UNL1       -0.2533
      5 H          59.1941   88.2079    7.7565 H       1  UNL1        0.1564
      6 H          60.2139   87.4925   10.0365 H       1  UNL1        0.1578
      7 C          59.6588   91.8257    4.2430 C.ar    1  UNL1        0.0361
      8 C          58.3999   91.4823    4.9826 C.ar    1  UNL1        0.0043
      9 C          58.4473   90.5345    6.1443 C.ar    1  UNL1        0.0148
     10 C          59.7537   89.9302    6.5664 C.ar    1  UNL1        0.0516
     11 C          61.0127   90.2737    5.8267 C.ar    1  UNL1        0.0148
     12 C          60.9652   91.2215    4.6651 C.ar    1  UNL1        0.0043
     13 C          60.1178   95.1082    2.0601 C.ar    1  UNL1        0.2311
     14 C          59.5167   94.6691    0.7580 C.ar    1  UNL1        0.1153
     15 C          58.9629   93.2821    0.6174 C.ar    1  UNL1        0.2311
     16 N          59.0103   92.3344    1.7791 N.ar    1  UNL1       -0.1923
     17 C          59.6114   92.7735    3.0812 C.ar    1  UNL1        0.1684
     18 N          60.1652   94.1604    3.2218 N.ar    1  UNL1       -0.1923
     19 C          62.0400   96.8132    1.6751 C.3     1  UNL1        0.2542
     20 O          60.6716   96.4951    2.2007 O.3     1  UNL1       -0.4560
     21 O          58.3617   92.8430   -0.6848 O.3     1  UNL1       -0.4560
     22 C          57.0916   93.4729   -1.1747 C.3     1  UNL1        0.2542
     23 C          61.7932   88.4995   11.1263 C.ar    1  UNL1        0.1380
     24 C          62.0478   89.8071   11.8159 C.ar    1  UNL1        0.0509
     25 C          63.0936   89.5809   12.8671 C.ar    1  UNL1        0.0810
     26 N          63.4854   88.1335   12.8272 N.ar    1  UNL1       -0.1683
     27 N          62.6817   87.4652   11.7513 N.ar    1  UNL1       -0.2162
     28 C          62.7539   86.0169   11.3679 C.ar    1  UNL1        0.0842
     29 C          62.8738   85.6284    9.9240 C.ar    1  UNL1        0.0189
     30 C          62.9460   84.1801    9.5404 C.ar    1  UNL1       -0.0027
     31 C          62.8983   83.1201   10.6008 C.ar    1  UNL1       -0.0218
     32 C          62.9705   81.6718   10.2173 C.3     1  UNL1        0.0310
     33 C          62.7785   83.5086   12.0446 C.ar    1  UNL1       -0.0027
     34 C          62.7063   84.9569   12.4282 C.ar    1  UNL1        0.0189
     35 C          63.6499   90.6197   13.7952 C.3     1  UNL1        0.0372
     36 C          63.2662   89.7732   14.9726 C.3     1  UNL1        0.0060
     37 C          64.0337   91.4661   12.6179 C.3     1  UNL1        0.0060
     38 C          64.2062   91.6584   14.7234 C.3     1  UNL1        0.0060
@<TRIPOS>BOND
     1    19    20    1
     2    20    13    1
     3    13    14   ar
     4    14    15   ar
     5    15    21    1
     6    21    22    1
     7    15    16   ar
     8    16    17   ar
     9    17     7    1
    10     7     8   ar
    11     8     9   ar
    12     9    10   ar
    13    10     1    1
    14     1     2   am
    15     2     3    2
    16     2     4   am
    17     4    23    1
    18    23    24   ar
    19    24    25   ar
    20    25    35    1
    21    35    36    1
    22    35    37    1
    23    35    38    1
    24    25    26   ar
    25    26    27   ar
    26    27    28    1
    27    28    29   ar
    28    29    30   ar
    29    30    31   ar
    30    31    32    1
    31    31    33   ar
    32    33    34   ar
    33    10    11   ar
    34    11    12   ar
    35    17    18   ar
    36    18    13   ar
    37    12     7   ar
    38    27    23   ar
    39    34    28   ar
    40     1     5    1
    41     4     6    1
@<TRIPOS>MOLECULE
*****
 38 41 0 0 0
SMALL
GASTEIGER

@<TRIPOS>ATOM
      1 N          59.7905   88.9717    7.8049 N.am    1  UNL1       -0.2680
      2 C          60.7742   89.2017    8.9136 C.2     1  UNL1        0.3092
      3 O          61.7132   90.3699    8.8530 O.2     1  UNL1       -0.2521
      4 N          60.8191   88.2634   10.0831 N.am    1  UNL1       -0.2533
      5 H          59.1743   88.2050    7.8447 H       1  UNL1        0.1564
      6 H          60.2028   87.4966   10.1230 H       1  UNL1        0.1578
      7 C          59.6562   91.7866    4.2965 C.ar    1  UNL1        0.0361
      8 C          58.3902   91.4192    5.0122 C.ar    1  UNL1        0.0043
      9 C          58.4349   90.4809    6.1817 C.ar    1  UNL1        0.0148
     10 C          59.7457   89.9100    6.6354 C.ar    1  UNL1        0.0516
     11 C          61.0118   90.2774    5.9197 C.ar    1  UNL1        0.0148
     12 C          60.9670   91.2157    4.7503 C.ar    1  UNL1        0.0043
     13 C          59.0001   93.2022    0.6474 C.ar    1  UNL1        0.2311
     14 C          59.5220   94.6013    0.7881 C.ar    1  UNL1        0.1153
     15 C          60.0886   95.0623    2.0983 C.ar    1  UNL1        0.2311
     16 N          60.1334   94.1241    3.2677 N.ar    1  UNL1       -0.1923
     17 C          59.6115   92.7249    3.1270 C.ar    1  UNL1        0.1684
     18 N          59.0449   92.2639    1.8169 N.ar    1  UNL1       -0.1923
     19 C          57.0879   93.2292   -1.1111 C.3     1  UNL1        0.2542
     20 O          58.4335   92.7412   -0.6627 O.3     1  UNL1       -0.4560
     21 O          60.6105   96.4616    2.2389 O.3     1  UNL1       -0.4560
     22 C          61.9968   96.7953    1.7733 C.3     1  UNL1        0.2542
     23 C          61.8028   88.4933   11.1919 C.ar    1  UNL1        0.1380
     24 C          62.0675   89.8003   11.8787 C.ar    1  UNL1        0.0509
     25 C          63.1228   89.5714   12.9198 C.ar    1  UNL1        0.0810
     26 N          63.5103   88.1229   12.8764 N.ar    1  UNL1       -0.1683
     27 N          62.6945   87.4567   11.8085 N.ar    1  UNL1       -0.2162
     28 C          62.7590   86.0081   11.4246 C.ar    1  UNL1        0.0842
     29 C          62.8222   85.6178    9.9777 C.ar    1  UNL1        0.0189
     30 C          62.8867   84.1692    9.5937 C.ar    1  UNL1       -0.0027
     31 C          62.8881   83.1108   10.6567 C.ar    1  UNL1       -0.0218
     32 C          62.9526   81.6623   10.2728 C.3     1  UNL1        0.0310
     33 C          62.8249   83.5012   12.1036 C.ar    1  UNL1       -0.0027
     34 C          62.7604   84.9497   12.4876 C.ar    1  UNL1        0.0189
     35 C          63.6910   90.6088   13.8424 C.3     1  UNL1        0.0372
     36 C          63.3266   89.7584   15.0230 C.3     1  UNL1        0.0060
     37 C          64.0553   91.4592   12.6617 C.3     1  UNL1        0.0060
     38 C          64.2591   91.6462   14.7649 C.3     1  UNL1        0.0060
@<TRIPOS>BOND
     1    19    20    1
     2    20    13    1
     3    13    14   ar
     4    14    15   ar
     5    15    21    1
     6    21    22    1
     7    15    16   ar
     8    16    17   ar
     9    17     7    1
    10     7     8   ar
    11     8     9   ar
    12     9    10   ar
    13    10     1    1
    14     1     2   am
    15     2     3    2
    16     2     4   am
    17     4    23    1
    18    23    24   ar
    19    24    25   ar
    20    25    35    1
    21    35    36    1
    22    35    37    1
    23    35    38    1
    24    25    26   ar
    25    26    27   ar
    26    27    28    1
    27    28    29   ar
    28    29    30   ar
    29    30    31   ar
    30    31    32    1
    31    31    33   ar
    32    33    34   ar
    33    10    11   ar
    34    11    12   ar
    35    17    18   ar
    36    18    13   ar
    37    12     7   ar
    38    27    23   ar
    39    34    28   ar
    40     1     5    1
    41     4     6    1
@<TRIPOS>MOLECULE
*****
 38 41 0 0 0
SMALL
GASTEIGER

@<TRIPOS>ATOM
      1 N          58.9925   90.2293    7.2732 N.am    1  UNL1       -0.2680
      2 C          60.1362   89.8087    8.1479 C.2     1  UNL1        0.3092
      3 O          61.5482   90.0604    7.7088 O.2     1  UNL1       -0.2521
      4 N          59.8678   89.1364    9.4617 N.am    1  UNL1       -0.2533
      5 H          58.0657   90.0641    7.5614 H       1  UNL1        0.1564
      6 H          58.9410   88.9712    9.7499 H       1  UNL1        0.1578
      7 C          59.7976   92.2462    3.3319 C.ar    1  UNL1        0.0361
      8 C          60.9221   91.6048    4.0897 C.ar    1  UNL1        0.0043
      9 C          60.6537   90.9325    5.4035 C.ar    1  UNL1        0.0148
     10 C          59.2609   90.9016    5.9595 C.ar    1  UNL1        0.0516
     11 C          58.1364   91.5429    5.2016 C.ar    1  UNL1        0.0148
     12 C          58.4048   92.2152    3.8878 C.ar    1  UNL1        0.0043
     13 C          59.2282   93.7504   -0.2962 C.ar    1  UNL1        0.2311
     14 C          60.6026   94.2631   -0.6094 C.ar    1  UNL1        0.1153
     15 C          61.7087   94.1034    0.3911 C.ar    1  UNL1        0.2311
     16 N          61.4404   93.4311    1.7049 N.ar    1  UNL1       -0.1923
     17 C          60.0660   92.9185    2.0181 C.ar    1  UNL1        0.1684
     18 N          58.9599   93.0781    1.0176 N.ar    1  UNL1       -0.1923
     19 C          56.8843   93.0699   -1.1868 C.3     1  UNL1        0.2542
     20 O          58.1221   93.9101   -1.2967 O.3     1  UNL1       -0.4560
     21 O          63.0832   94.6161    0.0778 O.3     1  UNL1       -0.4560
     22 C          64.2879   93.7924    0.4243 C.3     1  UNL1        0.2542
     23 C          61.0115   88.7158   10.3364 C.ar    1  UNL1        0.1380
     24 C          61.4584   89.4012   11.5936 C.ar    1  UNL1        0.0509
     25 C          62.6321   88.6450   12.1417 C.ar    1  UNL1        0.0810
     26 N          62.9107   87.4922   11.2231 N.ar    1  UNL1       -0.1683
     27 N          61.9090   87.5360   10.1075 N.ar    1  UNL1       -0.2162
     28 C          61.8205   86.5697    8.9636 C.ar    1  UNL1        0.0842
     29 C          63.0354   85.8011    8.5355 C.ar    1  UNL1        0.0189
     30 C          62.9471   84.8348    7.3917 C.ar    1  UNL1       -0.0027
     31 C          61.6437   84.6369    6.6760 C.ar    1  UNL1       -0.0218
     32 C          61.5552   83.6705    5.5322 C.3     1  UNL1        0.0310
     33 C          60.4288   85.4054    7.1042 C.ar    1  UNL1       -0.0027
     34 C          60.5172   86.3718    8.2480 C.ar    1  UNL1        0.0189
     35 C          63.3937   88.9823   13.3892 C.3     1  UNL1        0.0372
     36 C          63.0354   90.4286   13.2168 C.3     1  UNL1        0.0060
     37 C          63.7519   87.5359   13.5616 C.3     1  UNL1        0.0060
     38 C          64.1552   89.3196   14.6367 C.3     1  UNL1        0.0060
@<TRIPOS>BOND
     1    19    20    1
     2    20    13    1
     3    13    14   ar
     4    14    15   ar
     5    15    21    1
     6    21    22    1
     7    15    16   ar
     8    16    17   ar
     9    17     7    1
    10     7     8   ar
    11     8     9   ar
    12     9    10   ar
    13    10     1    1
    14     1     2   am
    15     2     3    2
    16     2     4   am
    17     4    23    1
    18    23    24   ar
    19    24    25   ar
    20    25    35    1
    21    35    36    1
    22    35    37    1
    23    35    38    1
    24    25    26   ar
    25    26    27   ar
    26    27    28    1
    27    28    29   ar
    28    29    30   ar
    29    30    31   ar
    30    31    32    1
    31    31    33   ar
    32    33    34   ar
    33    10    11   ar
    34    11    12   ar
    35    17    18   ar
    36    18    13   ar
    37    12     7   ar
    38    27    23   ar
    39    34    28   ar
    40     1     5    1
    41     4     6    1
@<TRIPOS>MOLECULE
*****
 38 41 0 0 0
SMALL
GASTEIGER

@<TRIPOS>ATOM
      1 N          59.0069   90.2306    7.2781 N.am    1  UNL1       -0.2680
      2 C          60.1508   89.8111    8.1530 C.2     1  UNL1        0.3092
      3 O          61.5628   90.0575    7.7109 O.2     1  UNL1       -0.2521
      4 N          59.8826   89.1452    9.4701 N.am    1  UNL1       -0.2533
      5 H          58.0801   90.0690    7.5683 H       1  UNL1        0.1564
      6 H          58.9559   88.9835    9.7603 H       1  UNL1        0.1578
      7 C          59.8114   92.2282    3.3268 C.ar    1  UNL1        0.0361
      8 C          60.9365   91.5933    4.0890 C.ar    1  UNL1        0.0043
      9 C          60.6683   90.9274    5.4062 C.ar    1  UNL1        0.0148
     10 C          59.2751   90.8965    5.9610 C.ar    1  UNL1        0.0516
     11 C          58.1499   91.5314    5.1987 C.ar    1  UNL1        0.0148
     12 C          58.4181   92.1973    3.8817 C.ar    1  UNL1        0.0043
     13 C          61.7325   94.0291    0.3576 C.ar    1  UNL1        0.2311
     14 C          60.6158   94.2259   -0.6244 C.ar    1  UNL1        0.1153
     15 C          59.2310   93.7567   -0.2893 C.ar    1  UNL1        0.2311
     16 N          58.9629   93.0909    1.0277 N.ar    1  UNL1       -0.1923
     17 C          60.0795   92.8941    2.0097 C.ar    1  UNL1        0.1684
     18 N          61.4643   93.3632    1.6747 N.ar    1  UNL1       -0.1923
     19 C          64.3089   93.7571    0.5524 C.3     1  UNL1        0.2542
     20 O          63.1173   94.4982    0.0226 O.3     1  UNL1       -0.4560
     21 O          58.1144   93.9535   -1.2714 O.3     1  UNL1       -0.4560
     22 C          56.8650   93.1308   -1.1612 C.3     1  UNL1        0.2542
     23 C          61.0265   88.7257   10.3451 C.ar    1  UNL1        0.1380
     24 C          61.4744   89.4132   11.6007 C.ar    1  UNL1        0.0509
     25 C          62.6480   88.6575   12.1497 C.ar    1  UNL1        0.0810
     26 N          62.9255   87.5028   11.2332 N.ar    1  UNL1       -0.1683
     27 N          61.9233   87.5450   10.1179 N.ar    1  UNL1       -0.2162
     28 C          61.8338   86.5765    8.9760 C.ar    1  UNL1        0.0842
     29 C          63.0489   85.8091    8.5464 C.ar    1  UNL1        0.0189
     30 C          62.9594   84.8407    7.4045 C.ar    1  UNL1       -0.0027
     31 C          61.6548   84.6395    6.6921 C.ar    1  UNL1       -0.0218
     32 C          61.5652   83.6710    5.5502 C.3     1  UNL1        0.0310
     33 C          60.4396   85.4069    7.1217 C.ar    1  UNL1       -0.0027
     34 C          60.5291   86.3754    8.2636 C.ar    1  UNL1        0.0189
     35 C          63.4103   88.9967   13.3962 C.3     1  UNL1        0.0372
     36 C          63.7701   87.5509   13.5697 C.3     1  UNL1        0.0060
     37 C          63.0506   90.4426   13.2227 C.3     1  UNL1        0.0060
     38 C          64.1727   89.3360   14.6426 C.3     1  UNL1        0.0060
@<TRIPOS>BOND
     1    19    20    1
     2    20    13    1
     3    13    14   ar
     4    14    15   ar
     5    15    21    1
     6    21    22    1
     7    15    16   ar
     8    16    17   ar
     9    17     7    1
    10     7     8   ar
    11     8     9   ar
    12     9    10   ar
    13    10     1    1
    14     1     2   am
    15     2     3    2
    16     2     4   am
    17     4    23    1
    18    23    24   ar
    19    24    25   ar
    20    25    35    1
    21    35    36    1
    22    35    37    1
    23    35    38    1
    24    25    26   ar
    25    26    27   ar
    26    27    28    1
    27    28    29   ar
    28    29    30   ar
    29    30    31   ar
    30    31    32    1
    31    31    33   ar
    32    33    34   ar
    33    10    11   ar
    34    11    12   ar
    35    17    18   ar
    36    18    13   ar
    37    12     7   ar
    38    27    23   ar
    39    34    28   ar
    40     1     5    1
    41     4     6    1
@<TRIPOS>MOLECULE
*****
 38 41 0 0 0
SMALL
GASTEIGER

@<TRIPOS>ATOM
      1 N          63.0853   90.6502   12.7437 N.am    1  UNL1       -0.2680
      2 C          64.1509   91.4141   12.0150 C.2     1  UNL1        0.3092
      3 O          65.1849   90.6801   11.2137 O.2     1  UNL1       -0.2521
      4 N          64.1824   92.9120   12.0876 N.am    1  UNL1       -0.2533
      5 H          62.4067   91.1319   13.2696 H       1  UNL1        0.1564
      6 H          63.5037   93.3938   12.6135 H       1  UNL1        0.1578
      7 C          62.9909   86.1564   12.5260 C.ar    1  UNL1        0.0361
      8 C          62.2761   86.9726   11.4903 C.ar    1  UNL1        0.0043
      9 C          62.3075   88.4706   11.5629 C.ar    1  UNL1        0.0148
     10 C          63.0539   89.1523   12.6711 C.ar    1  UNL1        0.0516
     11 C          63.7687   88.3360   13.7069 C.ar    1  UNL1        0.0148
     12 C          63.7372   86.8381   13.6343 C.ar    1  UNL1        0.0043
     13 C          62.3692   82.3659   13.5239 C.ar    1  UNL1        0.2311
     14 C          62.8965   81.6627   12.3085 C.ar    1  UNL1        0.1153
     15 C          63.4553   82.4573   11.1655 C.ar    1  UNL1        0.2311
     16 N          63.4867   83.9552   11.2380 N.ar    1  UNL1       -0.1923
     17 C          62.9594   84.6585   12.4535 C.ar    1  UNL1        0.1684
     18 N          62.4007   83.8638   13.5964 N.ar    1  UNL1       -0.1923
     19 C          60.7779   80.5138   14.4112 C.3     1  UNL1        0.2542
     20 O          61.8104   81.5713   14.6669 O.3     1  UNL1       -0.4560
     21 O          63.9826   81.7540    9.9500 O.3     1  UNL1       -0.4560
     22 C          63.4378   80.4103    9.5657 C.3     1  UNL1        0.2542
     23 C          65.2479   93.6759   11.3588 C.ar    1  UNL1        0.1380
     24 C          65.0876   94.3730   10.0404 C.ar    1  UNL1        0.0509
     25 C          66.4014   95.0048    9.6873 C.ar    1  UNL1        0.0810
     26 N          67.3737   94.6982   10.7876 N.ar    1  UNL1       -0.1683
     27 N          66.6608   93.8769   11.8207 N.ar    1  UNL1       -0.2162
     28 C          67.2563   93.3492   13.0922 C.ar    1  UNL1        0.0842
     29 C          68.1621   92.1542   13.0568 C.ar    1  UNL1        0.0189
     30 C          68.7576   91.6264   14.3283 C.ar    1  UNL1       -0.0027
     31 C          68.4473   92.2937   15.6354 C.ar    1  UNL1       -0.0218
     32 C          69.0427   91.7661   16.9070 C.3     1  UNL1        0.0310
     33 C          67.5414   93.4888   15.6709 C.ar    1  UNL1       -0.0027
     34 C          66.9459   94.0165   14.3993 C.ar    1  UNL1        0.0189
     35 C          66.6920   95.8031    8.4510 C.3     1  UNL1        0.0372
     36 C          67.7428   94.8084    8.0557 C.3     1  UNL1        0.0060
     37 C          65.6412   96.7978    8.8464 C.3     1  UNL1        0.0060
     38 C          66.9825   96.6013    7.2148 C.3     1  UNL1        0.0060
@<TRIPOS>BOND
     1    19    20    1
     2    20    13    1
     3    13    14   ar
     4    14    15   ar
     5    15    21    1
     6    21    22    1
     7    15    16   ar
     8    16    17   ar
     9    17     7    1
    10     7     8   ar
    11     8     9   ar
    12     9    10   ar
    13    10     1    1
    14     1     2   am
    15     2     3    2
    16     2     4   am
    17     4    23    1
    18    23    24   ar
    19    24    25   ar
    20    25    35    1
    21    35    36    1
    22    35    37    1
    23    35    38    1
    24    25    26   ar
    25    26    27   ar
    26    27    28    1
    27    28    29   ar
    28    29    30   ar
    29    30    31   ar
    30    31    32    1
    31    31    33   ar
    32    33    34   ar
    33    10    11   ar
    34    11    12   ar
    35    17    18   ar
    36    18    13   ar
    37    12     7   ar
    38    27    23   ar
    39    34    28   ar
    40     1     5    1
    41     4     6    1
@<TRIPOS>MOLECULE
*****
 38 41 0 0 0
SMALL
GASTEIGER

@<TRIPOS>ATOM
      1 N          64.2303   88.3293   14.6079 N.am    1  UNL1       -0.2680
      2 C          64.3526   89.3069   13.4768 C.2     1  UNL1        0.3092
      3 O          64.0514   88.8714   12.0733 O.2     1  UNL1       -0.2521
      4 N          64.7760   90.7199   13.7491 N.am    1  UNL1       -0.2533
      5 H          64.4280   88.6151   15.5290 H       1  UNL1        0.1564
      6 H          64.9737   91.0057   14.6702 H       1  UNL1        0.1578
      7 C          62.9600   84.0904   13.7908 C.ar    1  UNL1        0.0361
      8 C          62.8421   85.1292   12.7153 C.ar    1  UNL1        0.0043
      9 C          63.2655   86.5422   12.9876 C.ar    1  UNL1        0.0148
     10 C          63.8069   86.9164   14.3355 C.ar    1  UNL1        0.0516
     11 C          63.9248   85.8775   15.4111 C.ar    1  UNL1        0.0148
     12 C          63.5014   84.4645   15.1388 C.ar    1  UNL1        0.0043
     13 C          61.0328   80.6326   14.0731 C.ar    1  UNL1        0.2311
     14 C          61.6897   79.8514   12.9740 C.ar    1  UNL1        0.1153
     15 C          62.7701   80.4832   12.1471 C.ar    1  UNL1        0.2311
     16 N          63.1935   81.8961   12.4194 N.ar    1  UNL1       -0.1923
     17 C          62.5366   82.6773   13.5185 C.ar    1  UNL1        0.1684
     18 N          61.4562   82.0456   14.3454 N.ar    1  UNL1       -0.1923
     19 C          58.5243   80.0688   14.4465 C.3     1  UNL1        0.2542
     20 O          59.9524   80.0008   14.9000 O.3     1  UNL1       -0.4560
     21 O          63.4270   79.7019   11.0479 O.3     1  UNL1       -0.4560
     22 C          62.7041   79.4758    9.7532 C.3     1  UNL1        0.2542
     23 C          64.8983   91.6974   12.6180 C.ar    1  UNL1        0.1380
     24 C          65.9385   92.7704   12.4885 C.ar    1  UNL1        0.0509
     25 C          65.6849   93.5098   11.2083 C.ar    1  UNL1        0.0810
     26 N          64.4880   92.8937   10.5465 N.ar    1  UNL1       -0.1683
     27 N          64.0019   91.7736   11.4178 N.ar    1  UNL1       -0.2162
     28 C          62.8258   90.8856   11.1379 C.ar    1  UNL1        0.0842
     29 C          61.7211   90.7643   12.1453 C.ar    1  UNL1        0.0189
     30 C          60.5450   89.8764   11.8656 C.ar    1  UNL1       -0.0027
     31 C          60.4735   89.1097   10.5782 C.ar    1  UNL1       -0.0218
     32 C          59.2975   88.2217   10.2984 C.3     1  UNL1        0.0310
     33 C          61.5782   89.2310    9.5708 C.ar    1  UNL1       -0.0027
     34 C          62.7543   90.1190    9.8506 C.ar    1  UNL1        0.0189
     35 C          66.4873   94.6627   10.6821 C.3     1  UNL1        0.0372
     36 C          65.9094   95.5498   11.7447 C.3     1  UNL1        0.0060
     37 C          67.0652   93.7756    9.6195 C.3     1  UNL1        0.0060
     38 C          67.2897   95.8156   10.1560 C.3     1  UNL1        0.0060
@<TRIPOS>BOND
     1    19    20    1
     2    20    13    1
     3    13    14   ar
     4    14    15   ar
     5    15    21    1
     6    21    22    1
     7    15    16   ar
     8    16    17   ar
     9    17     7    1
    10     7     8   ar
    11     8     9   ar
    12     9    10   ar
    13    10     1    1
    14     1     2   am
    15     2     3    2
    16     2     4   am
    17     4    23    1
    18    23    24   ar
    19    24    25   ar
    20    25    35    1
    21    35    36    1
    22    35    37    1
    23    35    38    1
    24    25    26   ar
    25    26    27   ar
    26    27    28    1
    27    28    29   ar
    28    29    30   ar
    29    30    31   ar
    30    31    32    1
    31    31    33   ar
    32    33    34   ar
    33    10    11   ar
    34    11    12   ar
    35    17    18   ar
    36    18    13   ar
    37    12     7   ar
    38    27    23   ar
    39    34    28   ar
    40     1     5    1
    41     4     6    1
@<TRIPOS>MOLECULE
*****
 38 41 0 0 0
SMALL
GASTEIGER

@<TRIPOS>ATOM
      1 N          63.0601   90.7744   12.6417 N.am    1  UNL1       -0.2680
      2 C          64.1481   91.5317   11.9397 C.2     1  UNL1        0.3092
      3 O          65.2188   90.7897   11.1960 O.2     1  UNL1       -0.2521
      4 N          64.1654   93.0311   11.9813 N.am    1  UNL1       -0.2533
      5 H          62.3574   91.2614   13.1297 H       1  UNL1        0.1564
      6 H          63.4626   93.5181   12.4694 H       1  UNL1        0.1578
      7 C          63.0083   86.2765   12.5167 C.ar    1  UNL1        0.0361
      8 C          62.3111   87.0645   11.4477 C.ar    1  UNL1        0.0043
      9 C          62.3284   88.5639   11.4893 C.ar    1  UNL1        0.0148
     10 C          63.0428   89.2751   12.6000 C.ar    1  UNL1        0.0516
     11 C          63.7401   88.4870   13.6690 C.ar    1  UNL1        0.0148
     12 C          63.7228   86.9877   13.6274 C.ar    1  UNL1        0.0043
     13 C          63.5974   82.5524   11.2780 C.ar    1  UNL1        0.2311
     14 C          62.9567   81.7785   12.3917 C.ar    1  UNL1        0.1153
     15 C          62.3332   82.5039   13.5472 C.ar    1  UNL1        0.2311
     16 N          62.3504   84.0032   13.5888 N.ar    1  UNL1       -0.1923
     17 C          62.9911   84.7771   12.4751 C.ar    1  UNL1        0.1684
     18 N          63.6146   84.0517   11.3196 N.ar    1  UNL1       -0.1923
     19 C          63.6693   80.5035    9.6821 C.3     1  UNL1        0.2542
     20 O          64.2209   81.8270   10.1225 O.3     1  UNL1       -0.4560
     21 O          61.6924   81.7299   14.6610 O.3     1  UNL1       -0.4560
     22 C          60.7933   80.5707   14.3482 C.3     1  UNL1        0.2542
     23 C          65.2533   93.7883   11.2794 C.ar    1  UNL1        0.1380
     24 C          65.1173   94.5263    9.9805 C.ar    1  UNL1        0.0509
     25 C          66.4483   95.1347    9.6514 C.ar    1  UNL1        0.0810
     26 N          67.4070   94.7727   10.7468 N.ar    1  UNL1       -0.1683
     27 N          66.6684   93.9406   11.7529 N.ar    1  UNL1       -0.2162
     28 C          67.2440   93.3623   13.0116 C.ar    1  UNL1        0.0842
     29 C          68.1158   92.1434   12.9467 C.ar    1  UNL1        0.0189
     30 C          68.6914   91.5651   14.2053 C.ar    1  UNL1       -0.0027
     31 C          68.3953   92.2057   15.5290 C.ar    1  UNL1       -0.0218
     32 C          68.9708   91.6274   16.7876 C.3     1  UNL1        0.0310
     33 C          67.5235   93.4246   15.5939 C.ar    1  UNL1       -0.0027
     34 C          66.9478   94.0029   14.3353 C.ar    1  UNL1        0.0189
     35 C          66.7650   95.9601    8.4397 C.3     1  UNL1        0.0372
     36 C          65.5853   96.8397    8.7305 C.3     1  UNL1        0.0060
     37 C          67.9447   95.0805    8.1488 C.3     1  UNL1        0.0060
     38 C          67.0817   96.7855    7.2279 C.3     1  UNL1        0.0060
@<TRIPOS>BOND
     1    19    20    1
     2    20    13    1
     3    13    14   ar
     4    14    15   ar
     5    15    21    1
     6    21    22    1
     7    15    16   ar
     8    16    17   ar
     9    17     7    1
    10     7     8   ar
    11     8     9   ar
    12     9    10   ar
    13    10     1    1
    14     1     2   am
    15     2     3    2
    16     2     4   am
    17     4    23    1
    18    23    24   ar
    19    24    25   ar
    20    25    35    1
    21    35    36    1
    22    35    37    1
    23    35    38    1
    24    25    26   ar
    25    26    27   ar
    26    27    28    1
    27    28    29   ar
    28    29    30   ar
    29    30    31   ar
    30    31    32    1
    31    31    33   ar
    32    33    34   ar
    33    10    11   ar
    34    11    12   ar
    35    17    18   ar
    36    18    13   ar
    37    12     7   ar
    38    27    23   ar
    39    34    28   ar
    40     1     5    1
    41     4     6    1
@<TRIPOS>MOLECULE
*****
 38 41 0 0 0
SMALL
GASTEIGER

@<TRIPOS>ATOM
      1 N          64.1599   88.3348   14.5728 N.am    1  UNL1       -0.2680
      2 C          64.2991   89.3064   13.4386 C.2     1  UNL1        0.3092
      3 O          64.0246   88.8621   12.0324 O.2     1  UNL1       -0.2521
      4 N          64.7128   90.7224   13.7105 N.am    1  UNL1       -0.2533
      5 H          64.3400   88.6264   15.4957 H       1  UNL1        0.1564
      6 H          64.8930   91.0141   14.6333 H       1  UNL1        0.1578
      7 C          62.9187   84.0870   13.7570 C.ar    1  UNL1        0.0361
      8 C          63.4721   84.4619   15.0998 C.ar    1  UNL1        0.0043
      9 C          63.8858   85.8779   15.3718 C.ar    1  UNL1        0.0148
     10 C          63.7462   86.9189   14.3009 C.ar    1  UNL1        0.0516
     11 C          63.1928   86.5439   12.9580 C.ar    1  UNL1        0.0148
     12 C          62.7791   85.1280   12.6861 C.ar    1  UNL1        0.0043
     13 C          62.7541   80.4779   12.1146 C.ar    1  UNL1        0.2311
     14 C          61.6776   79.8392   12.9410 C.ar    1  UNL1        0.1153
     15 C          61.0148   80.6164   14.0395 C.ar    1  UNL1        0.2311
     16 N          61.4284   82.0323   14.3115 N.ar    1  UNL1       -0.1923
     17 C          62.5050   82.6710   13.4850 C.ar    1  UNL1        0.1684
     18 N          63.1678   81.8938   12.3866 N.ar    1  UNL1       -0.1923
     19 C          62.7059   79.4893    9.7124 C.3     1  UNL1        0.2542
     20 O          63.4170   79.7007   11.0161 O.3     1  UNL1       -0.4560
     21 O          59.9382   79.9776   14.8659 O.3     1  UNL1       -0.4560
     22 C          58.5045   80.0768   14.4362 C.3     1  UNL1        0.2542
     23 C          64.8520   91.6941   12.5762 C.ar    1  UNL1        0.1380
     24 C          65.9065   92.7530   12.4467 C.ar    1  UNL1        0.0509
     25 C          65.6674   93.4907   11.1628 C.ar    1  UNL1        0.0810
     26 N          64.4650   92.8878   10.4988 N.ar    1  UNL1       -0.1683
     27 N          63.9611   91.7774   11.3723 N.ar    1  UNL1       -0.2162
     28 C          62.7746   90.9038   11.0913 C.ar    1  UNL1        0.0842
     29 C          62.7282   90.0827    9.8369 C.ar    1  UNL1        0.0189
     30 C          61.5418   89.2090    9.5557 C.ar    1  UNL1       -0.0027
     31 C          60.4016   89.1564   10.5291 C.ar    1  UNL1       -0.0218
     32 C          59.2152   88.2828   10.2481 C.3     1  UNL1        0.0310
     33 C          60.4481   89.9775   11.7836 C.ar    1  UNL1       -0.0027
     34 C          61.6345   90.8512   12.0647 C.ar    1  UNL1        0.0189
     35 C          66.4867   94.6312   10.6354 C.3     1  UNL1        0.0372
     36 C          67.1256   93.7109    9.6380 C.3     1  UNL1        0.0060
     37 C          65.8478   95.5514   11.6329 C.3     1  UNL1        0.0060
     38 C          67.3060   95.7716   10.1081 C.3     1  UNL1        0.0060
@<TRIPOS>BOND
     1    19    20    1
     2    20    13    1
     3    13    14   ar
     4    14    15   ar
     5    15    21    1
     6    21    22    1
     7    15    16   ar
     8    16    17   ar
     9    17     7    1
    10     7     8   ar
    11     8     9   ar
    12     9    10   ar
    13    10     1    1
    14     1     2   am
    15     2     3    2
    16     2     4   am
    17     4    23    1
    18    23    24   ar
    19    24    25   ar
    20    25    35    1
    21    35    36    1
    22    35    37    1
    23    35    38    1
    24    25    26   ar
    25    26    27   ar
    26    27    28    1
    27    28    29   ar
    28    29    30   ar
    29    30    31   ar
    30    31    32    1
    31    31    33   ar
    32    33    34   ar
    33    10    11   ar
    34    11    12   ar
    35    17    18   ar
    36    18    13   ar
    37    12     7   ar
    38    27    23   ar
    39    34    28   ar
    40     1     5    1
    41     4     6    1
@<TRIPOS>MOLECULE
*****
 38 41 0 0 0
SMALL
GASTEIGER

@<TRIPOS>ATOM
      1 N          63.7595   88.5207   14.5438 N.am    1  UNL1       -0.2680
      2 C          63.5078   87.1990   13.8807 C.2     1  UNL1        0.3092
      3 O          63.8074   87.0228   12.4216 O.2     1  UNL1       -0.2521
      4 N          62.9564   86.0534   14.6768 N.am    1  UNL1       -0.2533
      5 H          63.5628   88.6363   15.5015 H       1  UNL1        0.1564
      6 H          62.7598   86.1690   15.6345 H       1  UNL1        0.1578
      7 C          65.4135   91.9573   12.1556 C.ar    1  UNL1        0.0361
      8 C          64.2955   91.1266   11.5990 C.ar    1  UNL1        0.0043
      9 C          63.7441   89.9810   12.3951 C.ar    1  UNL1        0.0148
     10 C          64.3108   89.6662   13.7478 C.ar    1  UNL1        0.0516
     11 C          65.4289   90.4970   14.3044 C.ar    1  UNL1        0.0148
     12 C          65.9802   91.6426   13.5083 C.ar    1  UNL1        0.0043
     13 C          67.8353   94.1088    9.8629 C.ar    1  UNL1        0.2311
     14 C          67.0676   95.3939    9.7674 C.ar    1  UNL1        0.1153
     15 C          65.7486   95.5335   10.4678 C.ar    1  UNL1        0.2311
     16 N          65.1972   94.3880   11.2639 N.ar    1  UNL1       -0.1923
     17 C          65.9649   93.1029   11.3595 C.ar    1  UNL1        0.1684
     18 N          67.2839   92.9633   10.6590 N.ar    1  UNL1       -0.1923
     19 C          69.5881   92.6319    8.6397 C.3     1  UNL1        0.2542
     20 O          69.1543   93.9692    9.1625 O.3     1  UNL1       -0.4560
     21 O          64.9809   96.8187   10.3722 O.3     1  UNL1       -0.4560
     22 C          63.6680   96.8559    9.6478 C.3     1  UNL1        0.2542
     23 C          62.7048   84.7317   14.0137 C.ar    1  UNL1        0.1380
     24 C          62.9100   83.3811   14.6333 C.ar    1  UNL1        0.0509
     25 C          62.5357   82.3432   13.6172 C.ar    1  UNL1        0.0810
     26 N          62.0992   83.0524   12.3695 N.ar    1  UNL1       -0.1683
     27 N          62.2036   84.5285   12.6146 N.ar    1  UNL1       -0.2162
     28 C          61.8662   85.6113   11.6330 C.ar    1  UNL1        0.0842
     29 C          62.4733   85.5959   10.2614 C.ar    1  UNL1        0.0189
     30 C          62.1360   86.6786    9.2797 C.ar    1  UNL1       -0.0027
     31 C          61.1915   87.7769    9.6695 C.ar    1  UNL1       -0.0218
     32 C          60.8540   88.8596    8.6878 C.3     1  UNL1        0.0310
     33 C          60.5844   87.7922   11.0410 C.ar    1  UNL1       -0.0027
     34 C          60.9217   86.7095   12.0228 C.ar    1  UNL1        0.0189
     35 C          62.5887   80.8572   13.8140 C.3     1  UNL1        0.0372
     36 C          61.1157   80.8421   14.0970 C.3     1  UNL1        0.0060
     37 C          64.0616   80.8722   13.5310 C.3     1  UNL1        0.0060
     38 C          62.6416   79.3711   14.0109 C.3     1  UNL1        0.0060
@<TRIPOS>BOND
     1    19    20    1
     2    20    13    1
     3    13    14   ar
     4    14    15   ar
     5    15    21    1
     6    21    22    1
     7    15    16   ar
     8    16    17   ar
     9    17     7    1
    10     7     8   ar
    11     8     9   ar
    12     9    10   ar
    13    10     1    1
    14     1     2   am
    15     2     3    2
    16     2     4   am
    17     4    23    1
    18    23    24   ar
    19    24    25   ar
    20    25    35    1
    21    35    36    1
    22    35    37    1
    23    35    38    1
    24    25    26   ar
    25    26    27   ar
    26    27    28    1
    27    28    29   ar
    28    29    30   ar
    29    30    31   ar
    30    31    32    1
    31    31    33   ar
    32    33    34   ar
    33    10    11   ar
    34    11    12   ar
    35    17    18   ar
    36    18    13   ar
    37    12     7   ar
    38    27    23   ar
    39    34    28   ar
    40     1     5    1
    41     4     6    1
