@<TRIPOS>MOLECULE
*****
 38 43 0 0 0
SMALL
GASTEIGER

@<TRIPOS>ATOM
      1 C          59.4253   88.8681    7.2752 C.2     1  UNL1        0.1040
      2 N          58.6530   87.5827    7.3085 N.2     1  UNL1       -0.1483
      3 N          59.0503   86.8351    8.5467 N.2     1  UNL1       -0.1520
      4 C          60.0683   87.6585    9.2787 C.2     1  UNL1        0.0864
      5 C          60.8141   87.4264   10.5593 C.3     1  UNL1        0.0738
      6 C          61.7917   88.4509   11.0540 C.2     1  UNL1       -0.0152
      7 C          62.0235   89.7074   10.2682 C.2     1  UNL1        0.0496
      8 C          61.2776   89.9394    8.9876 C.2     1  UNL1        0.0070
      9 C          60.3001   88.9150    8.4929 C.2     1  UNL1        0.0351
     10 C          59.1641   92.0290    4.0829 C.ar    1  UNL1        0.1384
     11 C          57.9222   91.5719    4.7891 C.ar    1  UNL1        0.0369
     12 C          58.0093   90.5182    5.8532 C.ar    1  UNL1        0.0047
     13 C          59.3383   89.9217    6.2111 C.ar    1  UNL1        0.0196
     14 C          60.5801   90.3789    5.5049 C.ar    1  UNL1        0.0047
     15 C          60.4930   91.4325    4.4408 C.ar    1  UNL1        0.0369
     16 O          59.0771   93.0826    3.0188 O.3     1  UNL1       -0.4791
     17 O          64.6000   94.5919   -0.7851 O.2     1  UNL1       -0.2649
     18 C          63.4738   93.6310   -1.0268 C.2     1  UNL1        0.3029
     19 N          62.3746   93.4939   -0.0154 N.am    1  UNL1       -0.2721
     20 C          62.4015   94.3178    1.2378 C.3     1  UNL1        0.0976
     21 C          61.3024   94.1807    2.2492 C.3     1  UNL1        0.0651
     22 C          60.1763   93.2197    2.0074 C.3     1  UNL1        0.1693
     23 C          60.1493   92.3958    0.7542 C.3     1  UNL1        0.0651
     24 C          61.2485   92.5329   -0.2572 C.3     1  UNL1        0.0976
     25 C          63.0011   90.7318   10.7630 C.2     1  UNL1        0.2458
     26 O          63.2476   91.9791    9.9670 O.2     1  UNL1       -0.2701
     27 N          63.7321   90.5090   12.0536 N.am    1  UNL1       -0.2973
     28 H          63.5703   89.6904   12.5760 H       1  UNL1        0.1500
     29 C          64.7098   91.5335   12.5484 C.3     1  UNL1        0.1120
     30 C          64.8671   91.7701   14.0212 C.ar    1  UNL1        0.0768
     31 C          66.1036   92.4379   14.5457 C.ar    1  UNL1        0.0164
     32 C          66.2610   92.6745   16.0185 C.ar    1  UNL1        0.0029
     33 C          65.1818   92.2434   16.9669 C.ar    1  UNL1        0.0207
     34 C          63.9452   91.5756   16.4425 C.ar    1  UNL1        0.0985
     35 N          63.7878   91.3390   14.9696 N.ar    1  UNL1       -0.2465
     36 C          65.5300   92.3212   11.5704 C.3     1  UNL1        0.0238
     37 C          66.6556   92.3952   10.5817 C.3     1  UNL1        0.0021
     38 C          65.8252   93.6117   10.8651 C.3     1  UNL1        0.0021
@<TRIPOS>BOND
     1    17    18    2
     2    18    19   am
     3    19    20    1
     4    20    21    1
     5    21    22    1
     6    22    16    1
     7    16    10    1
     8    10    11   ar
     9    11    12   ar
    10    12    13   ar
    11    13     1    1
    12     1     2    2
    13     2     3    1
    14     3     4    2
    15     4     5    1
    16     5     6    1
    17     6     7    2
    18     7    25    1
    19    25    26    2
    20    25    27   am
    21    27    29    1
    22    29    30    1
    23    30    31   ar
    24    31    32   ar
    25    32    33   ar
    26    33    34   ar
    27    34    35   ar
    28    29    36    1
    29    36    37    1
    30    37    38    1
    31     7     8    1
    32     8     9    2
    33    13    14   ar
    34    14    15   ar
    35    22    23    1
    36    23    24    1
    37    24    19    1
    38    15    10   ar
    39     9     1    1
    40     9     4    1
    41    35    30   ar
    42    38    36    1
    43    27    28    1
@<TRIPOS>MOLECULE
*****
 38 43 0 0 0
SMALL
GASTEIGER

@<TRIPOS>ATOM
      1 C          59.5899   88.9733    7.3985 C.2     1  UNL1        0.1040
      2 N          58.8165   87.6903    7.4739 N.2     1  UNL1       -0.1483
      3 N          59.2420   86.9649    8.7160 N.2     1  UNL1       -0.1520
      4 C          60.2785   87.7996    9.4082 C.2     1  UNL1        0.0864
      5 C          61.0542   87.5897   10.6747 C.3     1  UNL1        0.0738
      6 C          62.0450   88.6212   11.1269 C.2     1  UNL1       -0.0152
      7 C          62.2599   89.8624   10.3127 C.2     1  UNL1        0.0496
      8 C          61.4842   90.0723    9.0461 C.2     1  UNL1        0.0070
      9 C          60.4935   89.0409    8.5939 C.2     1  UNL1        0.0351
     10 C          59.2579   92.0752    4.1552 C.ar    1  UNL1        0.1384
     11 C          60.5997   91.5130    4.5209 C.ar    1  UNL1        0.0369
     12 C          60.7104   90.4790    5.6019 C.ar    1  UNL1        0.0047
     13 C          59.4792   90.0072    6.3174 C.ar    1  UNL1        0.0196
     14 C          58.1376   90.5694    5.9517 C.ar    1  UNL1        0.0047
     15 C          58.0269   91.6033    4.8707 C.ar    1  UNL1        0.0369
     16 O          59.1473   93.1091    3.0742 O.3     1  UNL1       -0.4791
     17 O          64.5655   94.6570   -0.8624 O.2     1  UNL1       -0.2649
     18 C          63.4874   93.6286   -1.0359 C.2     1  UNL1        0.3029
     19 N          62.4024   93.4987   -0.0084 N.am    1  UNL1       -0.2721
     20 C          62.3954   94.3973    1.1927 C.3     1  UNL1        0.0976
     21 C          61.3104   94.2674    2.2202 C.3     1  UNL1        0.0651
     22 C          60.2323   93.2390    2.0466 C.3     1  UNL1        0.1693
     23 C          60.2392   92.3404    0.8455 C.3     1  UNL1        0.0651
     24 C          61.3242   92.4703   -0.1820 C.3     1  UNL1        0.0976
     25 C          63.2507   90.8939   10.7650 C.2     1  UNL1        0.2458
     26 O          63.4464   92.1475    9.9649 O.2     1  UNL1       -0.2701
     27 N          64.0459   90.6716   12.0173 N.am    1  UNL1       -0.2973
     28 H          63.9174   89.8488   12.5424 H       1  UNL1        0.1500
     29 C          65.0367   91.7031   12.4696 C.3     1  UNL1        0.1120
     30 C          65.7537   92.5483   11.4589 C.ar    1  UNL1        0.0768
     31 C          66.8662   91.9597   10.6430 C.ar    1  UNL1        0.0164
     32 C          67.5832   92.8049    9.6322 C.ar    1  UNL1        0.0029
     33 C          67.1877   94.2386    9.4374 C.ar    1  UNL1        0.0207
     34 C          66.0751   94.8272   10.2534 C.ar    1  UNL1        0.0985
     35 N          65.3581   93.9820   11.2641 N.ar    1  UNL1       -0.2465
     36 C          65.3104   91.8893   13.9326 C.3     1  UNL1        0.0238
     37 C          66.0970   92.5338   15.0352 C.3     1  UNL1        0.0021
     38 C          64.9980   91.5674   15.3639 C.3     1  UNL1        0.0021
@<TRIPOS>BOND
     1    17    18    2
     2    18    19   am
     3    19    20    1
     4    20    21    1
     5    21    22    1
     6    22    16    1
     7    16    10    1
     8    10    11   ar
     9    11    12   ar
    10    12    13   ar
    11    13     1    1
    12     1     2    2
    13     2     3    1
    14     3     4    2
    15     4     5    1
    16     5     6    1
    17     6     7    2
    18     7    25    1
    19    25    26    2
    20    25    27   am
    21    27    29    1
    22    29    30    1
    23    30    31   ar
    24    31    32   ar
    25    32    33   ar
    26    33    34   ar
    27    34    35   ar
    28    29    36    1
    29    36    37    1
    30    37    38    1
    31     7     8    1
    32     8     9    2
    33    13    14   ar
    34    14    15   ar
    35    22    23    1
    36    23    24    1
    37    24    19    1
    38    15    10   ar
    39     9     1    1
    40     9     4    1
    41    35    30   ar
    42    38    36    1
    43    27    28    1
@<TRIPOS>MOLECULE
*****
 38 43 0 0 0
SMALL
GASTEIGER

@<TRIPOS>ATOM
      1 C          63.6802   84.4119   15.0528 C.2     1  UNL1        0.1040
      2 N          63.8900   83.2720   16.0051 N.2     1  UNL1       -0.1483
      3 N          63.8087   81.9943   15.2236 N.2     1  UNL1       -0.1520
      4 C          63.5486   82.3444   13.7884 C.2     1  UNL1        0.0864
      5 C          63.3738   81.4957   12.5640 C.3     1  UNL1        0.0738
      6 C          63.1196   82.1412   11.2341 C.2     1  UNL1       -0.0152
      7 C          63.0401   83.6354   11.1286 C.2     1  UNL1        0.0496
      8 C          63.2149   84.4841   12.3530 C.2     1  UNL1        0.0070
      9 C          63.4691   83.8386   13.6829 C.2     1  UNL1        0.0351
     10 C          63.6831   88.7838   16.1189 C.ar    1  UNL1        0.1384
     11 C          63.0437   87.7876   17.0402 C.ar    1  UNL1        0.0369
     12 C          63.0428   86.3303   16.6849 C.ar    1  UNL1        0.0047
     13 C          63.6812   85.8692   15.4082 C.ar    1  UNL1        0.0196
     14 C          64.3205   86.8654   14.4869 C.ar    1  UNL1        0.0047
     15 C          64.3215   88.3227   14.8423 C.ar    1  UNL1        0.0369
     16 O          63.6841   90.2411   16.4742 O.3     1  UNL1       -0.4791
     17 O          66.6217   94.1531   11.6455 O.2     1  UNL1       -0.2649
     18 C          66.7901   94.1409   13.1359 C.2     1  UNL1        0.3029
     19 N          66.0136   93.1659   13.9705 N.am    1  UNL1       -0.2721
     20 C          65.0686   92.2032   13.3146 C.3     1  UNL1        0.0976
     21 C          64.2921   91.2283   14.1492 C.3     1  UNL1        0.0651
     22 C          64.4606   91.2161   15.6397 C.3     1  UNL1        0.1693
     23 C          65.4056   92.1788   16.2956 C.3     1  UNL1        0.0651
     24 C          66.1821   93.1537   15.4611 C.3     1  UNL1        0.0976
     25 C          62.7859   84.2808    9.7986 C.2     1  UNL1        0.2458
     26 O          63.8009   84.1612    8.7006 O.2     1  UNL1       -0.2701
     27 N          61.5167   85.0459    9.5666 N.am    1  UNL1       -0.2973
     28 H          60.8506   85.1245   10.2873 H       1  UNL1        0.1500
     29 C          61.2625   85.6914    8.2366 C.3     1  UNL1        0.1120
     30 C          60.6805   87.0724    8.1722 C.ar    1  UNL1        0.0768
     31 C          59.6655   87.4102    7.1208 C.ar    1  UNL1        0.0164
     32 C          59.0834   88.7911    7.0564 C.ar    1  UNL1        0.0029
     33 C          59.5164   89.8343    8.0434 C.ar    1  UNL1        0.0207
     34 C          60.5314   89.4965    9.0950 C.ar    1  UNL1        0.0985
     35 N          61.1135   88.1155    9.1594 N.ar    1  UNL1       -0.2465
     36 C          61.5903   84.9559    6.9711 C.3     1  UNL1        0.0238
     37 C          62.5783   84.5754    5.9085 C.3     1  UNL1        0.0021
     38 C          61.1702   84.0625    5.8418 C.3     1  UNL1        0.0021
@<TRIPOS>BOND
     1    17    18    2
     2    18    19   am
     3    19    20    1
     4    20    21    1
     5    21    22    1
     6    22    16    1
     7    16    10    1
     8    10    11   ar
     9    11    12   ar
    10    12    13   ar
    11    13     1    1
    12     1     2    2
    13     2     3    1
    14     3     4    2
    15     4     5    1
    16     5     6    1
    17     6     7    2
    18     7    25    1
    19    25    26    2
    20    25    27   am
    21    27    29    1
    22    29    30    1
    23    30    31   ar
    24    31    32   ar
    25    32    33   ar
    26    33    34   ar
    27    34    35   ar
    28    29    36    1
    29    36    37    1
    30    37    38    1
    31     7     8    1
    32     8     9    2
    33    13    14   ar
    34    14    15   ar
    35    22    23    1
    36    23    24    1
    37    24    19    1
    38    15    10   ar
    39     9     1    1
    40     9     4    1
    41    35    30   ar
    42    38    36    1
    43    27    28    1
@<TRIPOS>MOLECULE
*****
 38 43 0 0 0
SMALL
GASTEIGER

@<TRIPOS>ATOM
      1 C          62.3116   87.9939   11.0077 C.2     1  UNL1        0.1040
      2 N          62.3999   86.6422   11.6520 N.2     1  UNL1       -0.1483
      3 N          61.5104   85.7060   10.8889 N.2     1  UNL1       -0.1520
      4 C          60.8723   86.4791    9.7730 C.2     1  UNL1        0.0864
      5 C          59.9044   86.0782    8.6995 C.3     1  UNL1        0.0738
      6 C          59.4317   87.0913    7.6995 C.2     1  UNL1       -0.0152
      7 C          59.9269   88.5053    7.7729 C.2     1  UNL1        0.0496
      8 C          60.8948   88.9062    8.8464 C.2     1  UNL1        0.0070
      9 C          61.3675   87.8931    9.8464 C.2     1  UNL1        0.0351
     10 C          64.4955   91.7007   12.3269 C.ar    1  UNL1        0.1384
     11 C          63.9083   91.6267   10.9486 C.ar    1  UNL1        0.0369
     12 C          63.1803   90.3911   10.5089 C.ar    1  UNL1        0.0047
     13 C          63.0396   89.2295   11.4474 C.ar    1  UNL1        0.0196
     14 C          63.6268   89.3035   12.8256 C.ar    1  UNL1        0.0047
     15 C          64.3548   90.5391   13.2654 C.ar    1  UNL1        0.0369
     16 O          65.2235   92.9363   12.7667 O.3     1  UNL1       -0.4791
     17 O          67.7671   96.2392    7.3012 O.2     1  UNL1       -0.2649
     18 C          67.4337   96.7312    8.6785 C.2     1  UNL1        0.3029
     19 N          66.8812   95.7825    9.7005 N.am    1  UNL1       -0.2721
     20 C          66.6620   94.3417    9.3453 C.3     1  UNL1        0.0976
     21 C          66.1094   93.3930   10.3674 C.3     1  UNL1        0.0651
     22 C          65.7761   93.8850   11.7446 C.3     1  UNL1        0.1693
     23 C          65.9952   95.3258   12.0999 C.3     1  UNL1        0.0651
     24 C          66.5478   96.2745   11.0778 C.3     1  UNL1        0.0976
     25 C          59.4541   89.5184    6.7728 C.2     1  UNL1        0.2458
     26 O          57.9916   89.8297    6.6546 O.2     1  UNL1       -0.2701
     27 N          60.4439   90.2202    5.8909 N.am    1  UNL1       -0.2973
     28 H          61.4039   90.0159    5.9685 H       1  UNL1        0.1500
     29 C          59.9712   91.2333    4.8908 C.3     1  UNL1        0.1120
     30 C          60.9314   91.8029    3.8890 C.ar    1  UNL1        0.0768
     31 C          60.4747   92.8629    2.9309 C.ar    1  UNL1        0.0164
     32 C          61.4349   93.4325    1.9292 C.ar    1  UNL1        0.0029
     33 C          62.8518   92.9422    1.8855 C.ar    1  UNL1        0.0207
     34 C          63.3086   91.8822    2.8436 C.ar    1  UNL1        0.0985
     35 N          62.3483   91.3126    3.8454 N.ar    1  UNL1       -0.2465
     36 C          58.5382   91.6768    4.8925 C.3     1  UNL1        0.0238
     37 C          57.5145   92.7621    5.0474 C.3     1  UNL1        0.0021
     38 C          57.0801   91.3596    4.7404 C.3     1  UNL1        0.0021
@<TRIPOS>BOND
     1    17    18    2
     2    18    19   am
     3    19    20    1
     4    20    21    1
     5    21    22    1
     6    22    16    1
     7    16    10    1
     8    10    11   ar
     9    11    12   ar
    10    12    13   ar
    11    13     1    1
    12     1     2    2
    13     2     3    1
    14     3     4    2
    15     4     5    1
    16     5     6    1
    17     6     7    2
    18     7    25    1
    19    25    26    2
    20    25    27   am
    21    27    29    1
    22    29    30    1
    23    30    31   ar
    24    31    32   ar
    25    32    33   ar
    26    33    34   ar
    27    34    35   ar
    28    29    36    1
    29    36    37    1
    30    37    38    1
    31     7     8    1
    32     8     9    2
    33    13    14   ar
    34    14    15   ar
    35    22    23    1
    36    23    24    1
    37    24    19    1
    38    15    10   ar
    39     9     1    1
    40     9     4    1
    41    35    30   ar
    42    38    36    1
    43    27    28    1
@<TRIPOS>MOLECULE
*****
 38 43 0 0 0
SMALL
GASTEIGER

@<TRIPOS>ATOM
      1 C          64.0688   88.5122   13.9561 C.2     1  UNL1        0.1040
      2 N          64.7160   89.5621   14.8098 N.2     1  UNL1       -0.1483
      3 N          64.5371   90.8872   14.1300 N.2     1  UNL1       -0.1520
      4 C          63.7793   90.6563   12.8563 C.2     1  UNL1        0.0864
      5 C          63.3155   91.5929   11.7804 C.3     1  UNL1        0.0738
      6 C          62.5623   91.0617   10.5970 C.2     1  UNL1       -0.0152
      7 C          62.2729   89.5938   10.4896 C.2     1  UNL1        0.0496
      8 C          62.7367   88.6571   11.5654 C.2     1  UNL1        0.0070
      9 C          63.4899   89.1884   12.7488 C.2     1  UNL1        0.0351
     10 C          63.8944   84.1071   14.8587 C.ar    1  UNL1        0.1384
     11 C          64.1772   85.0873   15.9583 C.ar    1  UNL1        0.0369
     12 C          64.2353   86.5557   15.6575 C.ar    1  UNL1        0.0047
     13 C          64.0107   87.0438   14.2570 C.ar    1  UNL1        0.0196
     14 C          63.7279   86.0636   13.1575 C.ar    1  UNL1        0.0047
     15 C          63.6697   84.5952   13.4583 C.ar    1  UNL1        0.0369
     16 O          63.8363   82.6387   15.1596 O.3     1  UNL1       -0.4791
     17 O          62.9586   78.9852    9.4035 O.2     1  UNL1       -0.2649
     18 C          62.4898   78.7354   10.8063 C.2     1  UNL1        0.3029
     19 N          62.8264   79.7113   11.8946 N.am    1  UNL1       -0.2721
     20 C          63.6319   80.9369   11.5802 C.3     1  UNL1        0.0976
     21 C          63.9686   81.9127   12.6685 C.3     1  UNL1        0.0651
     22 C          63.4997   81.6629   14.0713 C.3     1  UNL1        0.1693
     23 C          62.6941   80.4372   14.3858 C.3     1  UNL1        0.0651
     24 C          62.3575   79.4614   13.2974 C.3     1  UNL1        0.0976
     25 C          61.5196   89.0625    9.3061 C.2     1  UNL1        0.2458
     26 O          61.8291   87.6954    8.7722 O.2     1  UNL1       -0.2701
     27 N          60.4569   89.8984    8.6567 N.am    1  UNL1       -0.2973
     28 H          60.2537   90.7958    9.0071 H       1  UNL1        0.1500
     29 C          59.7036   89.3672    7.4732 C.3     1  UNL1        0.1120
     30 C          59.3764   90.2738    6.3239 C.ar    1  UNL1        0.0768
     31 C          57.9457   90.5832    5.9965 C.ar    1  UNL1        0.0164
     32 C          57.6185   91.4899    4.8471 C.ar    1  UNL1        0.0029
     33 C          58.7220   92.0871    4.0253 C.ar    1  UNL1        0.0207
     34 C          60.1528   91.7777    4.3527 C.ar    1  UNL1        0.0985
     35 N          60.4800   90.8711    5.5020 N.ar    1  UNL1       -0.2465
     36 C          59.2776   87.9294    7.4392 C.3     1  UNL1        0.0238
     37 C          58.2910   86.8580    7.7981 C.3     1  UNL1        0.0021
     38 C          59.5262   86.5105    7.0213 C.3     1  UNL1        0.0021
@<TRIPOS>BOND
     1    17    18    2
     2    18    19   am
     3    19    20    1
     4    20    21    1
     5    21    22    1
     6    22    16    1
     7    16    10    1
     8    10    11   ar
     9    11    12   ar
    10    12    13   ar
    11    13     1    1
    12     1     2    2
    13     2     3    1
    14     3     4    2
    15     4     5    1
    16     5     6    1
    17     6     7    2
    18     7    25    1
    19    25    26    2
    20    25    27   am
    21    27    29    1
    22    29    30    1
    23    30    31   ar
    24    31    32   ar
    25    32    33   ar
    26    33    34   ar
    27    34    35   ar
    28    29    36    1
    29    36    37    1
    30    37    38    1
    31     7     8    1
    32     8     9    2
    33    13    14   ar
    34    14    15   ar
    35    22    23    1
    36    23    24    1
    37    24    19    1
    38    15    10   ar
    39     9     1    1
    40     9     4    1
    41    35    30   ar
    42    38    36    1
    43    27    28    1
