@<TRIPOS>MOLECULE
*****
 42 45 0 0 0
SMALL
GASTEIGER

@<TRIPOS>ATOM
      1 C          61.9579   88.3031   11.0088 C.3     1  UNL1        0.0807
      2 C          62.9405   89.3322   11.4838 C.ar    1  UNL1        0.0375
      3 C          63.2391   90.5322   10.6348 C.ar    1  UNL1        0.0023
      4 C          64.2216   91.5613   11.1097 C.ar    1  UNL1        0.0181
      5 C          64.5202   92.7613   10.2607 C.ar    1  UNL1        0.0082
      6 C          65.5028   93.7904   10.7357 C.ar    1  UNL1        0.0347
      7 BR         65.8014   94.9904    9.8867 Br      1  UNL1       -0.0490
      8 C          66.1868   93.6194   12.0596 C.ar    1  UNL1        0.0082
      9 C          65.8882   92.4194   12.9087 C.ar    1  UNL1        0.0197
     10 C          64.9057   91.3903   12.4337 C.ar    1  UNL1        0.0844
     11 N          64.6071   90.1903   13.2828 N.ar    1  UNL1       -0.2119
     12 C          63.6245   89.1612   12.8078 C.ar    1  UNL1        0.2211
     13 O          63.3260   87.9612   13.6568 O.3     1  UNL1       -0.4563
     14 C          64.3145   87.5091   14.6903 C.3     1  UNL1        0.2542
     15 C          62.4469   87.0445   10.3555 C.ar    1  UNL1        0.0213
     16 C          62.9845   87.0861    8.9558 C.ar    1  UNL1       -0.0007
     17 C          63.4734   85.8275    8.3025 C.ar    1  UNL1        0.0030
     18 C          63.4248   84.5273    9.0489 C.ar    1  UNL1        0.0400
     19 C          62.8872   84.4857   10.4486 C.ar    1  UNL1        0.1721
     20 C          62.3982   85.7444   11.1019 C.ar    1  UNL1        0.1687
     21 O          62.8386   83.1856   11.1951 O.3     1  UNL1       -0.4684
     22 C          63.8532   82.1184   10.9093 C.3     1  UNL1        0.2526
     23 O          61.8607   85.7028   12.5017 O.3     1  UNL1       -0.4687
     24 C          62.4293   84.7333   13.4950 C.3     1  UNL1        0.2526
     25 C          60.4864   88.5327   11.1872 C.3     1  UNL1        0.1162
     26 O          60.7023   88.7797   12.6508 O.3     1  UNL1       -0.3820
     27 H          59.8517   88.9730   13.0751 H       1  UNL1        0.2107
     28 C          59.9727   89.1951    7.3081 C.ar    1  UNL1        0.2272
     29 C          60.1887   89.4421    8.7717 C.ar    1  UNL1        0.0559
     30 C          60.2704   88.2857    9.7235 C.ar    1  UNL1        0.0117
     31 C          60.1362   86.8822    9.2116 C.ar    1  UNL1        0.0559
     32 C          59.9203   86.6351    7.7479 C.ar    1  UNL1        0.2272
     33 N          59.8385   87.7916    6.7962 N.ar    1  UNL1       -0.1767
     34 C          58.6164   90.6231    5.6136 C.3     1  UNL1        0.2542
     35 O          59.8910   90.3516    6.3563 O.3     1  UNL1       -0.4561
     36 O          59.7861   85.2315    7.2360 O.3     1  UNL1       -0.4561
     37 C          60.8940   84.6169    6.4331 C.3     1  UNL1        0.2542
     38 C          59.0148   88.7623   11.3655 C.3     1  UNL1        0.0491
     39 C          58.5071   89.4514   12.5974 C.3     1  UNL1        0.0750
     40 N          57.9633   88.6437   13.7384 N.3     1  UNL1       -0.2702
     41 C          58.7499   88.5164   15.0092 C.3     1  UNL1        0.0897
     42 C          56.6328   87.9632   13.6085 C.3     1  UNL1        0.0897
@<TRIPOS>BOND
     1    34    35    1
     2    35    28    1
     3    28    29   ar
     4    29    30   ar
     5    30    25    1
     6    25    26    1
     7    25    38    1
     8    38    39    1
     9    39    40    1
    10    40    41    1
    11    40    42    1
    12    25     1    1
    13     1     2    1
    14     2     3   ar
    15     3     4   ar
    16     4     5   ar
    17     5     6   ar
    18     6     7    1
    19     6     8   ar
    20     8     9   ar
    21     9    10   ar
    22    10    11   ar
    23    11    12   ar
    24    12    13    1
    25    13    14    1
    26     1    15    1
    27    15    16   ar
    28    16    17   ar
    29    17    18   ar
    30    18    19   ar
    31    19    21    1
    32    21    22    1
    33    19    20   ar
    34    20    23    1
    35    23    24    1
    36    30    31   ar
    37    31    32   ar
    38    32    36    1
    39    36    37    1
    40    32    33   ar
    41    33    28   ar
    42    12     2   ar
    43    20    15   ar
    44    10     4   ar
    45    26    27    1
@<TRIPOS>MOLECULE
*****
 42 45 0 0 0
SMALL
GASTEIGER

@<TRIPOS>ATOM
      1 C          61.9663   88.2768   11.0279 C.3     1  UNL1        0.0807
      2 C          62.9469   89.3092   11.5001 C.ar    1  UNL1        0.0375
      3 C          63.2342   90.5133   10.6531 C.ar    1  UNL1        0.0023
      4 C          64.2147   91.5457   11.1252 C.ar    1  UNL1        0.0181
      5 C          64.5020   92.7499   10.2782 C.ar    1  UNL1        0.0082
      6 C          65.4826   93.7822   10.7504 C.ar    1  UNL1        0.0347
      7 BR         65.7699   94.9864    9.9034 Br      1  UNL1       -0.0490
      8 C          66.1757   93.6104   12.0694 C.ar    1  UNL1        0.0082
      9 C          65.8883   92.4062   12.9164 C.ar    1  UNL1        0.0197
     10 C          64.9079   91.3739   12.4443 C.ar    1  UNL1        0.0844
     11 N          64.6205   90.1697   13.2913 N.ar    1  UNL1       -0.2119
     12 C          63.6400   89.1373   12.8191 C.ar    1  UNL1        0.2211
     13 O          63.3526   87.9331   13.6661 O.3     1  UNL1       -0.4563
     14 C          64.3422   87.4925   14.7037 C.3     1  UNL1        0.2542
     15 C          62.4577   87.0196   10.3736 C.ar    1  UNL1        0.0213
     16 C          62.9966   87.0636    8.9745 C.ar    1  UNL1       -0.0007
     17 C          63.4879   85.8064    8.3202 C.ar    1  UNL1        0.0030
     18 C          63.4403   84.5052    9.0651 C.ar    1  UNL1        0.0400
     19 C          62.9013   84.4613   10.4642 C.ar    1  UNL1        0.1721
     20 C          62.4100   85.7186   11.1185 C.ar    1  UNL1        0.1687
     21 O          62.8537   83.1602   11.2091 O.3     1  UNL1       -0.4684
     22 C          63.9086   82.1208   10.9712 C.3     1  UNL1        0.2526
     23 O          61.8710   85.6746   12.5176 O.3     1  UNL1       -0.4687
     24 C          62.4606   84.7261   13.5190 C.3     1  UNL1        0.2526
     25 C          60.4945   88.5017   11.2101 C.3     1  UNL1        0.1162
     26 O          60.7115   88.7343   12.6759 O.3     1  UNL1       -0.3820
     27 H          59.8609   88.9215   13.1030 H       1  UNL1        0.2107
     28 C          59.9271   86.6380    7.7525 C.ar    1  UNL1        0.2272
     29 C          60.1441   86.8706    9.2184 C.ar    1  UNL1        0.0559
     30 C          60.2776   88.2690    9.7442 C.ar    1  UNL1        0.0117
     31 C          60.1941   89.4349    8.8041 C.ar    1  UNL1        0.0559
     32 C          59.9772   89.2022    7.3382 C.ar    1  UNL1        0.2272
     33 N          59.8436   87.8038    6.8124 N.ar    1  UNL1       -0.1767
     34 C          60.9030   84.6324    6.4201 C.3     1  UNL1        0.2542
     35 O          59.7936   85.2394    7.2268 O.3     1  UNL1       -0.4561
     36 O          59.8937   90.3682    6.3981 O.3     1  UNL1       -0.4561
     37 C          58.6533   90.5876    5.5837 C.3     1  UNL1        0.2542
     38 C          59.0227   88.7265   11.3922 C.3     1  UNL1        0.0491
     39 C          58.5185   89.4435   12.6096 C.3     1  UNL1        0.0750
     40 N          57.9686   88.6623   13.7660 N.3     1  UNL1       -0.2702
     41 C          56.6439   87.9698   13.6411 C.3     1  UNL1        0.0897
     42 C          58.7434   88.5736   15.0474 C.3     1  UNL1        0.0897
@<TRIPOS>BOND
     1    34    35    1
     2    35    28    1
     3    28    29   ar
     4    29    30   ar
     5    30    25    1
     6    25    26    1
     7    25    38    1
     8    38    39    1
     9    39    40    1
    10    40    41    1
    11    40    42    1
    12    25     1    1
    13     1     2    1
    14     2     3   ar
    15     3     4   ar
    16     4     5   ar
    17     5     6   ar
    18     6     7    1
    19     6     8   ar
    20     8     9   ar
    21     9    10   ar
    22    10    11   ar
    23    11    12   ar
    24    12    13    1
    25    13    14    1
    26     1    15    1
    27    15    16   ar
    28    16    17   ar
    29    17    18   ar
    30    18    19   ar
    31    19    21    1
    32    21    22    1
    33    19    20   ar
    34    20    23    1
    35    23    24    1
    36    30    31   ar
    37    31    32   ar
    38    32    36    1
    39    36    37    1
    40    32    33   ar
    41    33    28   ar
    42    12     2   ar
    43    20    15   ar
    44    10     4   ar
    45    26    27    1
@<TRIPOS>MOLECULE
*****
 42 45 0 0 0
SMALL
GASTEIGER

@<TRIPOS>ATOM
      1 C          63.1476   88.8084   12.1573 C.3     1  UNL1        0.0807
      2 C          62.1868   88.2529   11.1481 C.ar    1  UNL1        0.0375
      3 C          62.6732   87.3056   10.0917 C.ar    1  UNL1        0.0023
      4 C          61.7125   86.7502    9.0825 C.ar    1  UNL1        0.0181
      5 C          62.1989   85.8028    8.0261 C.ar    1  UNL1        0.0082
      6 C          61.2381   85.2474    7.0169 C.ar    1  UNL1        0.0347
      7 BR         61.7245   84.3000    5.9605 Br      1  UNL1       -0.0490
      8 C          59.7910   85.6392    7.0642 C.ar    1  UNL1        0.0082
      9 C          59.3046   86.5865    8.1206 C.ar    1  UNL1        0.0197
     10 C          60.2653   87.1420    9.1297 C.ar    1  UNL1        0.0844
     11 N          59.7789   88.0893   10.1861 N.ar    1  UNL1       -0.2119
     12 C          60.7397   88.6448   11.1953 C.ar    1  UNL1        0.2211
     13 O          60.2533   89.5921   12.2517 O.3     1  UNL1       -0.4563
     14 C          59.1365   90.5460   11.9471 C.3     1  UNL1        0.2542
     15 C          63.7484   87.9080   13.1956 C.ar    1  UNL1        0.0213
     16 C          64.8173   88.4274   14.1110 C.ar    1  UNL1       -0.0007
     17 C          65.4181   87.5270   15.1493 C.ar    1  UNL1        0.0030
     18 C          64.9501   86.1072   15.2724 C.ar    1  UNL1        0.0400
     19 C          63.8812   85.5878   14.3571 C.ar    1  UNL1        0.1721
     20 C          63.2804   86.4883   13.3187 C.ar    1  UNL1        0.1687
     21 O          63.4132   84.1681   14.4802 O.3     1  UNL1       -0.4684
     22 C          62.3918   83.8022   15.5160 C.3     1  UNL1        0.2526
     23 O          62.2115   85.9689   12.4034 O.3     1  UNL1       -0.4687
     24 C          62.3527   84.6122   11.7793 C.3     1  UNL1        0.2526
     25 C          63.5075   90.2643   12.1280 C.3     1  UNL1        0.1162
     26 O          63.5901   90.2138   10.6311 O.3     1  UNL1       -0.3820
     27 H          63.8274   91.0905   10.2906 H       1  UNL1        0.2107
     28 C          62.4370   89.4207   15.8552 C.ar    1  UNL1        0.2272
     29 C          62.5196   89.3702   14.3584 C.ar    1  UNL1        0.0559
     30 C          63.4249   90.3148   13.6249 C.ar    1  UNL1        0.0117
     31 C          64.2476   91.3100   14.3883 C.ar    1  UNL1        0.0559
     32 C          64.1650   91.3605   15.8851 C.ar    1  UNL1        0.2272
     33 N          63.2597   90.4158   16.6186 N.ar    1  UNL1       -0.1767
     34 C          62.1003   87.2605   17.2589 C.3     1  UNL1        0.2542
     35 O          61.5317   88.4760   16.5887 O.3     1  UNL1       -0.4561
     36 O          64.9878   92.3557   16.6485 O.3     1  UNL1       -0.4561
     37 C          66.3706   92.7013   16.1813 C.3     1  UNL1        0.2542
     38 C          63.8675   91.7202   12.0987 C.3     1  UNL1        0.0491
     39 C          64.6804   92.2691   10.9639 C.3     1  UNL1        0.0750
     40 N          66.0308   92.8661   11.2287 N.3     1  UNL1       -0.2702
     41 C          66.2442   93.7333   12.4338 C.3     1  UNL1        0.0897
     42 C          67.1678   92.5959   10.2883 C.3     1  UNL1        0.0897
@<TRIPOS>BOND
     1    34    35    1
     2    35    28    1
     3    28    29   ar
     4    29    30   ar
     5    30    25    1
     6    25    26    1
     7    25    38    1
     8    38    39    1
     9    39    40    1
    10    40    41    1
    11    40    42    1
    12    25     1    1
    13     1     2    1
    14     2     3   ar
    15     3     4   ar
    16     4     5   ar
    17     5     6   ar
    18     6     7    1
    19     6     8   ar
    20     8     9   ar
    21     9    10   ar
    22    10    11   ar
    23    11    12   ar
    24    12    13    1
    25    13    14    1
    26     1    15    1
    27    15    16   ar
    28    16    17   ar
    29    17    18   ar
    30    18    19   ar
    31    19    21    1
    32    21    22    1
    33    19    20   ar
    34    20    23    1
    35    23    24    1
    36    30    31   ar
    37    31    32   ar
    38    32    36    1
    39    36    37    1
    40    32    33   ar
    41    33    28   ar
    42    12     2   ar
    43    20    15   ar
    44    10     4   ar
    45    26    27    1
@<TRIPOS>MOLECULE
*****
 42 45 0 0 0
SMALL
GASTEIGER

@<TRIPOS>ATOM
      1 C          63.1518   88.8106   12.1644 C.3     1  UNL1        0.0807
      2 C          62.1921   88.2552   11.1540 C.ar    1  UNL1        0.0375
      3 C          62.6797   87.3078   10.0982 C.ar    1  UNL1        0.0023
      4 C          61.7201   86.7524    9.0879 C.ar    1  UNL1        0.0181
      5 C          62.2077   85.8050    8.0321 C.ar    1  UNL1        0.0082
      6 C          61.2480   85.2497    7.0217 C.ar    1  UNL1        0.0347
      7 BR         61.7356   84.3023    5.9659 Br      1  UNL1       -0.0490
      8 C          59.8009   85.6417    7.0672 C.ar    1  UNL1        0.0082
      9 C          59.3134   86.5891    8.1230 C.ar    1  UNL1        0.0197
     10 C          60.2729   87.1444    9.1333 C.ar    1  UNL1        0.0844
     11 N          59.7853   88.0918   10.1892 N.ar    1  UNL1       -0.2119
     12 C          60.7450   88.6472   11.1995 C.ar    1  UNL1        0.2211
     13 O          60.2574   89.5946   12.2553 O.3     1  UNL1       -0.4563
     14 C          59.1423   90.5498   11.9488 C.3     1  UNL1        0.2542
     15 C          63.7536   87.9095   13.2015 C.ar    1  UNL1        0.0213
     16 C          64.8248   88.4276   14.1148 C.ar    1  UNL1       -0.0007
     17 C          65.4266   87.5266   15.1520 C.ar    1  UNL1        0.0030
     18 C          64.9573   86.1072   15.2760 C.ar    1  UNL1        0.0400
     19 C          63.8861   85.5891   14.3627 C.ar    1  UNL1        0.1721
     20 C          63.2842   86.4902   13.3255 C.ar    1  UNL1        0.1687
     21 O          63.4167   84.1698   14.4866 O.3     1  UNL1       -0.4684
     22 C          62.3917   83.8064   15.5197 C.3     1  UNL1        0.2526
     23 O          62.2130   85.9721   12.4122 O.3     1  UNL1       -0.4687
     24 C          62.3518   84.6155   11.7872 C.3     1  UNL1        0.2526
     25 C          63.5095   90.2670   12.1374 C.3     1  UNL1        0.1162
     26 O          63.5912   90.2193   10.6404 O.3     1  UNL1       -0.3820
     27 H          63.8270   91.0970   10.3013 H       1  UNL1        0.2107
     28 C          64.1682   91.3571   15.8961 C.ar    1  UNL1        0.2272
     29 C          64.2499   91.3094   14.3991 C.ar    1  UNL1        0.0559
     30 C          63.4278   90.3148   13.6345 C.ar    1  UNL1        0.0117
     31 C          62.5239   89.3679   14.3668 C.ar    1  UNL1        0.0559
     32 C          62.4422   89.4156   15.8638 C.ar    1  UNL1        0.2272
     33 N          63.2643   90.4102   16.6285 N.ar    1  UNL1       -0.1767
     34 C          66.3609   92.7222   16.1765 C.3     1  UNL1        0.2542
     35 O          64.9904   92.3518   16.6608 O.3     1  UNL1       -0.4561
     36 O          61.5383   88.4686   16.5962 O.3     1  UNL1       -0.4561
     37 C          62.1065   87.2447   17.2511 C.3     1  UNL1        0.2542
     38 C          63.8672   91.7235   12.1105 C.3     1  UNL1        0.0491
     39 C          64.6825   92.2747   10.9784 C.3     1  UNL1        0.0750
     40 N          66.0297   92.8766   11.2479 N.3     1  UNL1       -0.2702
     41 C          67.1745   92.5991   10.3192 C.3     1  UNL1        0.0897
     42 C          66.2322   93.7561   12.4461 C.3     1  UNL1        0.0897
@<TRIPOS>BOND
     1    34    35    1
     2    35    28    1
     3    28    29   ar
     4    29    30   ar
     5    30    25    1
     6    25    26    1
     7    25    38    1
     8    38    39    1
     9    39    40    1
    10    40    41    1
    11    40    42    1
    12    25     1    1
    13     1     2    1
    14     2     3   ar
    15     3     4   ar
    16     4     5   ar
    17     5     6   ar
    18     6     7    1
    19     6     8   ar
    20     8     9   ar
    21     9    10   ar
    22    10    11   ar
    23    11    12   ar
    24    12    13    1
    25    13    14    1
    26     1    15    1
    27    15    16   ar
    28    16    17   ar
    29    17    18   ar
    30    18    19   ar
    31    19    21    1
    32    21    22    1
    33    19    20   ar
    34    20    23    1
    35    23    24    1
    36    30    31   ar
    37    31    32   ar
    38    32    36    1
    39    36    37    1
    40    32    33   ar
    41    33    28   ar
    42    12     2   ar
    43    20    15   ar
    44    10     4   ar
    45    26    27    1
@<TRIPOS>MOLECULE
*****
 42 45 0 0 0
SMALL
GASTEIGER

@<TRIPOS>ATOM
      1 C          62.3092   89.2697   12.2109 C.3     1  UNL1        0.0807
      2 C          62.8066   87.9152   12.6208 C.ar    1  UNL1        0.0375
      3 C          62.7892   86.7812   11.6391 C.ar    1  UNL1        0.0023
      4 C          63.2866   85.4267   12.0489 C.ar    1  UNL1        0.0181
      5 C          63.2692   84.2927   11.0672 C.ar    1  UNL1        0.0082
      6 C          63.7666   82.9382   11.4771 C.ar    1  UNL1        0.0347
      7 BR         63.7492   81.8042   10.4954 Br      1  UNL1       -0.0490
      8 C          64.2813   82.7177   12.8686 C.ar    1  UNL1        0.0082
      9 C          64.2987   83.8517   13.8503 C.ar    1  UNL1        0.0197
     10 C          63.8014   85.2062   13.4405 C.ar    1  UNL1        0.0844
     11 N          63.8188   86.3402   14.4222 N.ar    1  UNL1       -0.2119
     12 C          63.3214   87.6947   14.0123 C.ar    1  UNL1        0.2211
     13 O          63.3388   88.8287   14.9940 O.3     1  UNL1       -0.4563
     14 C          63.1597   88.5560   16.4581 C.3     1  UNL1        0.2542
     15 C          63.2780   90.3134   11.7398 C.ar    1  UNL1        0.0213
     16 C          63.5633   90.4653   10.2750 C.ar    1  UNL1       -0.0007
     17 C          64.5321   91.5090    9.8038 C.ar    1  UNL1        0.0030
     18 C          65.2156   92.4010   10.7975 C.ar    1  UNL1        0.0400
     19 C          64.9304   92.2491   12.2622 C.ar    1  UNL1        0.1721
     20 C          63.9615   91.2053   12.7334 C.ar    1  UNL1        0.1687
     21 O          65.6139   93.1410   13.2559 O.3     1  UNL1       -0.4684
     22 C          66.4144   94.3174   12.7814 C.3     1  UNL1        0.2526
     23 O          63.6762   91.0534   14.1981 O.3     1  UNL1       -0.4687
     24 C          64.7215   91.4242   15.2082 C.3     1  UNL1        0.2526
     25 C          60.8430   89.5804   12.2722 C.3     1  UNL1        0.1162
     26 O          61.0091   90.0876   13.6740 O.3     1  UNL1       -0.3820
     27 H          60.1510   90.3863   14.0136 H       1  UNL1        0.2107
     28 C          60.7501   87.1174    9.1617 C.ar    1  UNL1        0.2272
     29 C          60.9162   87.6246   10.5636 C.ar    1  UNL1        0.0559
     30 C          60.6770   89.0732   10.8703 C.ar    1  UNL1        0.0117
     31 C          60.2716   90.0147    9.7752 C.ar    1  UNL1        0.0559
     32 C          60.1055   89.5075    8.3734 C.ar    1  UNL1        0.2272
     33 N          60.3448   88.0589    8.0666 N.ar    1  UNL1       -0.1767
     34 C          61.8858   85.2812    7.7164 C.3     1  UNL1        0.2542
     35 O          60.9894   85.6687    8.8550 O.3     1  UNL1       -0.4561
     36 O          59.7002   90.4491    7.2783 O.3     1  UNL1       -0.4561
     37 C          59.1709   89.9092    5.9827 C.3     1  UNL1        0.2542
     38 C          59.3769   89.8911   12.3335 C.3     1  UNL1        0.0491
     39 C          58.3713   88.7800   12.2670 C.3     1  UNL1        0.0750
     40 N          57.6583   88.3383   13.5106 N.3     1  UNL1       -0.2702
     41 C          58.3952   88.2758   14.8155 C.3     1  UNL1        0.0897
     42 C          56.2082   87.9593   13.4491 C.3     1  UNL1        0.0897
@<TRIPOS>BOND
     1    34    35    1
     2    35    28    1
     3    28    29   ar
     4    29    30   ar
     5    30    25    1
     6    25    26    1
     7    25    38    1
     8    38    39    1
     9    39    40    1
    10    40    41    1
    11    40    42    1
    12    25     1    1
    13     1     2    1
    14     2     3   ar
    15     3     4   ar
    16     4     5   ar
    17     5     6   ar
    18     6     7    1
    19     6     8   ar
    20     8     9   ar
    21     9    10   ar
    22    10    11   ar
    23    11    12   ar
    24    12    13    1
    25    13    14    1
    26     1    15    1
    27    15    16   ar
    28    16    17   ar
    29    17    18   ar
    30    18    19   ar
    31    19    21    1
    32    21    22    1
    33    19    20   ar
    34    20    23    1
    35    23    24    1
    36    30    31   ar
    37    31    32   ar
    38    32    36    1
    39    36    37    1
    40    32    33   ar
    41    33    28   ar
    42    12     2   ar
    43    20    15   ar
    44    10     4   ar
    45    26    27    1
@<TRIPOS>MOLECULE
*****
 42 45 0 0 0
SMALL
GASTEIGER

@<TRIPOS>ATOM
      1 C          62.0247   88.0577   10.7455 C.3     1  UNL1        0.0807
      2 C          62.5493   87.1550   11.8227 C.ar    1  UNL1        0.0375
      3 C          62.2575   85.6844   11.7767 C.ar    1  UNL1        0.0023
      4 C          62.7820   84.7817   12.8538 C.ar    1  UNL1        0.0181
      5 C          62.4902   83.3111   12.8079 C.ar    1  UNL1        0.0082
      6 C          63.0148   82.4084   13.8850 C.ar    1  UNL1        0.0347
      7 BR         62.7230   80.9378   13.8391 Br      1  UNL1       -0.0490
      8 C          63.8311   82.9764   15.0079 C.ar    1  UNL1        0.0082
      9 C          64.1229   84.4470   15.0538 C.ar    1  UNL1        0.0197
     10 C          63.5983   85.3497   13.9768 C.ar    1  UNL1        0.0844
     11 N          63.8901   86.8203   14.0227 N.ar    1  UNL1       -0.2119
     12 C          63.3656   87.7230   12.9456 C.ar    1  UNL1        0.2211
     13 O          63.6574   89.1936   12.9915 O.3     1  UNL1       -0.4563
     14 C          63.3920   89.9721   14.2459 C.3     1  UNL1        0.2542
     15 C          61.2335   87.4856    9.6069 C.ar    1  UNL1        0.0213
     16 C          59.8200   87.9318    9.3769 C.ar    1  UNL1       -0.0007
     17 C          59.0288   87.3596    8.2382 C.ar    1  UNL1        0.0030
     18 C          59.6511   86.3412    7.3295 C.ar    1  UNL1        0.0400
     19 C          61.0646   85.8950    7.5595 C.ar    1  UNL1        0.1721
     20 C          61.8558   86.4672    8.6983 C.ar    1  UNL1        0.1687
     21 O          61.6869   84.8766    6.6509 O.3     1  UNL1       -0.4684
     22 C          60.8311   84.1083    5.6880 C.3     1  UNL1        0.2526
     23 O          63.2693   86.0210    8.9283 O.3     1  UNL1       -0.4687
     24 C          63.5873   84.5584    9.0275 C.3     1  UNL1        0.2526
     25 C          62.2914   89.5325   10.8072 C.3     1  UNL1        0.1162
     26 O          63.6619   89.3084   10.2401 O.3     1  UNL1       -0.3820
     27 H          64.1200   90.1592   10.1555 H       1  UNL1        0.2107
     28 C          58.9240   88.9410   12.8222 C.ar    1  UNL1        0.2272
     29 C          60.2945   88.7168   12.2552 C.ar    1  UNL1        0.0559
     30 C          60.9210   89.7567   11.3742 C.ar    1  UNL1        0.0117
     31 C          60.1769   91.0207   11.0603 C.ar    1  UNL1        0.0559
     32 C          58.8064   91.2448   11.6273 C.ar    1  UNL1        0.2272
     33 N          58.1800   90.2050   12.5083 N.ar    1  UNL1       -0.1767
     34 C          56.8070   87.7348   13.7241 C.3     1  UNL1        0.2542
     35 O          58.2976   87.9010   13.7033 O.3     1  UNL1       -0.4561
     36 O          58.0624   92.5089   11.3133 O.3     1  UNL1       -0.4561
     37 C          58.2352   93.7172   12.1852 C.3     1  UNL1        0.2542
     38 C          62.5582   91.0073   10.8688 C.3     1  UNL1        0.0491
     39 C          63.7421   91.5860   10.1521 C.3     1  UNL1        0.0750
     40 N          64.7993   92.3206   10.9220 N.3     1  UNL1       -0.2702
     41 C          65.7302   93.2575   10.2109 C.3     1  UNL1        0.0897
     42 C          64.9256   92.1183   12.4030 C.3     1  UNL1        0.0897
@<TRIPOS>BOND
     1    34    35    1
     2    35    28    1
     3    28    29   ar
     4    29    30   ar
     5    30    25    1
     6    25    26    1
     7    25    38    1
     8    38    39    1
     9    39    40    1
    10    40    41    1
    11    40    42    1
    12    25     1    1
    13     1     2    1
    14     2     3   ar
    15     3     4   ar
    16     4     5   ar
    17     5     6   ar
    18     6     7    1
    19     6     8   ar
    20     8     9   ar
    21     9    10   ar
    22    10    11   ar
    23    11    12   ar
    24    12    13    1
    25    13    14    1
    26     1    15    1
    27    15    16   ar
    28    16    17   ar
    29    17    18   ar
    30    18    19   ar
    31    19    21    1
    32    21    22    1
    33    19    20   ar
    34    20    23    1
    35    23    24    1
    36    30    31   ar
    37    31    32   ar
    38    32    36    1
    39    36    37    1
    40    32    33   ar
    41    33    28   ar
    42    12     2   ar
    43    20    15   ar
    44    10     4   ar
    45    26    27    1
