@<TRIPOS>MOLECULE
*****
 55 60 0 0 0
SMALL
GASTEIGER

@<TRIPOS>ATOM
      1 N          61.1454   85.9257    8.4315 N.3     1  UNL1       -0.1862
      2 C          61.9819   84.7799    8.9185 C.3     1  UNL1        0.1775
      3 C          62.7688   84.9124   10.1886 C.2     1  UNL1        0.2452
      4 O          63.6053   83.7665   10.6757 O.2     1  UNL1       -0.2732
      5 N          62.7193   86.1908   10.9717 N.am    1  UNL1       -0.2541
      6 C          63.5062   86.3234   12.2418 C.3     1  UNL1        0.1577
      7 C          63.4566   87.6018   13.0248 C.2     1  UNL1        0.2445
      8 O          64.2435   87.7343   14.2950 O.2     1  UNL1       -0.2731
      9 N          62.6201   88.7477   12.5378 N.am    1  UNL1       -0.2705
     10 C          61.8332   88.6152   11.2677 C.3     1  UNL1        0.1359
     11 C          61.8828   87.3367   10.4846 C.3     1  UNL1        0.1908
     12 N          61.0959   87.2041    9.2145 N.am    1  UNL1       -0.1863
     13 C          60.2594   88.3500    8.7274 C.2     1  UNL1        0.3191
     14 O          60.2098   89.6284    9.5105 O.2     1  UNL1       -0.2512
     15 N          59.4724   88.2175    7.4573 N.am    1  UNL1       -0.2836
     16 H          59.5050   87.3784    6.9434 H       1  UNL1        0.1513
     17 C          60.3585   85.7932    7.1613 C.3     1  UNL1        0.1188
     18 C          61.9400   84.3685    5.6717 C.2     1  UNL1       -0.0034
     19 C          60.5824   84.6155    6.2598 C.2     1  UNL1       -0.0071
     20 C          64.3427   85.1775   12.7289 C.3     1  UNL1        0.0556
     21 C          63.6827   83.9360   13.2514 C.ar    1  UNL1       -0.0198
     22 C          64.3387   82.6007   13.0604 C.ar    1  UNL1       -0.0011
     23 C          63.6787   81.3592   13.5829 C.ar    1  UNL1        0.0363
     24 C          62.3626   81.4530   14.2965 C.ar    1  UNL1        0.1337
     25 O          61.7026   80.2115   14.8190 O.3     1  UNL1       -0.5055
     26 C          61.7065   82.7884   14.4875 C.ar    1  UNL1        0.0363
     27 C          62.3665   84.0299   13.9650 C.ar    1  UNL1       -0.0011
     28 H          62.1124   79.3774   14.6997 H       1  UNL1        0.2922
     29 C          62.5705   90.0261   13.3208 C.3     1  UNL1        0.1217
     30 C          63.7922   90.8904   13.4238 C.ar    1  UNL1        0.0135
     31 C          64.5168   91.0119   14.7316 C.ar    1  UNL1       -0.0012
     32 C          65.7385   91.8761   14.8346 C.ar    1  UNL1       -0.0002
     33 C          66.2355   92.6189   13.6300 C.ar    1  UNL1        0.0016
     34 C          65.5109   92.4974   12.3223 C.ar    1  UNL1        0.0214
     35 C          65.7634   93.1056   10.9746 C.ar    1  UNL1        0.0721
     36 C          64.6979   92.6172   10.0386 C.ar    1  UNL1        0.0805
     37 N          63.7868   91.7072   10.8078 N.ar    1  UNL1       -0.3241
     38 C          62.5843   90.9961   10.2615 C.3     1  UNL1        0.1305
     39 C          64.2892   91.6331   12.2192 C.ar    1  UNL1        0.0577
     40 C          66.8847   94.0384   10.6243 C.2     1  UNL1        0.2506
     41 O          68.2920   93.5246   10.5491 O.2     1  UNL1       -0.2699
     42 N          66.5988   95.4850   10.3493 N.am    1  UNL1       -0.2742
     43 C          67.7199   96.4178    9.9991 C.3     1  UNL1        0.1152
     44 C          65.1914   95.9987   10.4245 C.3     1  UNL1        0.0964
     45 C          64.5676   96.6545    9.2284 C.3     1  UNL1        0.0532
     46 C          65.3722   96.8560    7.9786 C.3     1  UNL1        0.1389
     47 O          65.8115   95.6713    7.1703 O.3     1  UNL1       -0.3819
     48 H          66.4416   95.1438    7.6857 H       1  UNL1        0.2104
     49 C          58.6360   89.3633    6.9702 C.3     1  UNL1        0.1177
     50 C          59.1762   90.2962    5.9272 C.ar    1  UNL1       -0.0025
     51 C          58.2511   91.2297    5.2044 C.ar    1  UNL1       -0.0026
     52 C          58.7914   92.1626    4.1613 C.ar    1  UNL1       -0.0003
     53 C          60.2567   92.1618    3.8411 C.ar    1  UNL1       -0.0000
     54 C          61.1820   91.2282    4.5639 C.ar    1  UNL1       -0.0003
     55 C          60.6417   90.2954    5.6070 C.ar    1  UNL1       -0.0026
@<TRIPOS>BOND
     1    18    19    2
     2    19    17    1
     3    17     1    1
     4     1     2    1
     5     2     3    1
     6     3     4    2
     7     3     5   am
     8     5     6    1
     9     6    20    1
    10    20    21    1
    11    21    22   ar
    12    22    23   ar
    13    23    24   ar
    14    24    25    1
    15    24    26   ar
    16    26    27   ar
    17     6     7    1
    18     7     8    2
    19     7     9   am
    20     9    29    1
    21    29    30    1
    22    30    31   ar
    23    31    32   ar
    24    32    33   ar
    25    33    34   ar
    26    34    35   ar
    27    35    40    1
    28    40    41    2
    29    40    42   am
    30    42    43    1
    31    42    44    1
    32    44    45    1
    33    45    46    1
    34    46    47    1
    35    35    36   ar
    36    36    37   ar
    37    37    38    1
    38    37    39   ar
    39     9    10    1
    40    11    10    1
    41    11    12    1
    42    12    13   am
    43    13    14    2
    44    13    15   am
    45    15    49    1
    46    49    50    1
    47    50    51   ar
    48    51    52   ar
    49    52    53   ar
    50    53    54   ar
    51    54    55   ar
    52    12     1    1
    53    55    50   ar
    54    11     5    1
    55    27    21   ar
    56    39    30   ar
    57    39    34   ar
    58    25    28    1
    59    47    48    1
    60    15    16    1
@<TRIPOS>MOLECULE
*****
 55 60 0 0 0
SMALL
GASTEIGER

@<TRIPOS>ATOM
      1 N          62.8883   84.1496    9.5875 N.3     1  UNL1       -0.1862
      2 C          62.2170   84.1972    8.2469 C.3     1  UNL1        0.1775
      3 C          61.4254   85.4070    7.8471 C.2     1  UNL1        0.2452
      4 O          60.7541   85.4545    6.5065 O.2     1  UNL1       -0.2732
      5 N          61.3051   86.5692    8.7877 N.am    1  UNL1       -0.2541
      6 C          60.5136   87.7789    8.3879 C.3     1  UNL1        0.1577
      7 C          60.3933   88.9411    9.3285 C.2     1  UNL1        0.2445
      8 O          59.6017   90.1508    8.9286 O.2     1  UNL1       -0.2731
      9 N          61.0646   88.8935   10.6691 N.am    1  UNL1       -0.2705
     10 C          61.8562   87.6838   11.0690 C.3     1  UNL1        0.1359
     11 C          61.9765   86.5216   10.1282 C.3     1  UNL1        0.1908
     12 N          62.7680   85.3118   10.5281 N.am    1  UNL1       -0.1863
     13 C          63.4394   85.2643   11.8687 C.2     1  UNL1        0.3191
     14 O          63.3191   86.4264   12.8093 O.2     1  UNL1       -0.2512
     15 N          64.2309   84.0545   12.2686 N.am    1  UNL1       -0.2836
     16 H          64.3099   83.2917   11.6512 H       1  UNL1        0.1513
     17 C          63.6799   82.9399    9.9873 C.3     1  UNL1        0.1188
     18 C          62.7504   81.2700   11.7473 C.2     1  UNL1       -0.0034
     19 C          62.9750   81.6572   10.3157 C.2     1  UNL1       -0.0071
     20 C          59.8423   87.8265    7.0473 C.3     1  UNL1        0.0556
     21 C          59.6561   89.1404    6.3480 C.ar    1  UNL1       -0.0198
     22 C          58.2897   89.7514    6.2509 C.ar    1  UNL1       -0.0011
     23 C          58.1036   91.0652    5.5515 C.ar    1  UNL1        0.0363
     24 C          59.2839   91.7681    4.9492 C.ar    1  UNL1        0.1337
     25 O          59.0978   93.0819    4.2498 O.3     1  UNL1       -0.5055
     26 C          60.6505   91.1571    5.0463 C.ar    1  UNL1        0.0363
     27 C          60.8366   89.8432    5.7456 C.ar    1  UNL1       -0.0011
     28 H          58.2442   93.4636    4.1892 H       1  UNL1        0.2922
     29 C          60.9444   90.0557   11.6097 C.3     1  UNL1        0.1217
     30 C          61.9170   90.2084   12.7415 C.ar    1  UNL1        0.0135
     31 C          61.6022   89.6211   14.0853 C.ar    1  UNL1       -0.0012
     32 C          62.5748   89.7738   15.2170 C.ar    1  UNL1       -0.0002
     33 C          63.8622   90.5137   15.0048 C.ar    1  UNL1        0.0016
     34 C          64.1770   91.1010   13.6609 C.ar    1  UNL1        0.0214
     35 C          65.3573   91.8770   13.1562 C.ar    1  UNL1        0.0721
     36 C          65.1142   92.2039   11.7126 C.ar    1  UNL1        0.0805
     37 N          63.7836   91.6300   11.3252 N.ar    1  UNL1       -0.3241
     38 C          63.1445   91.7215    9.9713 C.3     1  UNL1        0.1305
     39 C          63.2044   90.9484   12.5293 C.ar    1  UNL1        0.0577
     40 C          66.5682   92.2590   13.9550 C.2     1  UNL1        0.2506
     41 O          66.4073   92.8643   15.3180 O.2     1  UNL1       -0.2699
     42 N          67.9400   92.0358   13.3906 N.am    1  UNL1       -0.2742
     43 C          69.1508   92.4177   14.1893 C.3     1  UNL1        0.1152
     44 C          68.1008   91.4305   12.0276 C.3     1  UNL1        0.0964
     45 C          68.5617   92.2791   10.8798 C.3     1  UNL1        0.0532
     46 C          68.0031   92.0508    9.5066 C.3     1  UNL1        0.1389
     47 O          68.8994   92.1435    8.3074 O.3     1  UNL1       -0.3819
     48 H          69.2108   93.0565    8.2062 H       1  UNL1        0.2104
     49 C          64.9023   84.0069   13.6091 C.3     1  UNL1        0.1177
     50 C          64.2703   84.6843   14.7888 C.ar    1  UNL1       -0.0025
     51 C          64.7844   86.0144   15.2540 C.ar    1  UNL1       -0.0026
     52 C          64.1525   86.6919   16.4337 C.ar    1  UNL1       -0.0003
     53 C          63.0065   86.0392   17.1483 C.ar    1  UNL1       -0.0000
     54 C          62.4924   84.7090   16.6831 C.ar    1  UNL1       -0.0003
     55 C          63.1243   84.0316   15.5034 C.ar    1  UNL1       -0.0026
@<TRIPOS>BOND
     1    18    19    2
     2    19    17    1
     3    17     1    1
     4     1     2    1
     5     2     3    1
     6     3     4    2
     7     3     5   am
     8     5     6    1
     9     6    20    1
    10    20    21    1
    11    21    22   ar
    12    22    23   ar
    13    23    24   ar
    14    24    25    1
    15    24    26   ar
    16    26    27   ar
    17     6     7    1
    18     7     8    2
    19     7     9   am
    20     9    29    1
    21    29    30    1
    22    30    31   ar
    23    31    32   ar
    24    32    33   ar
    25    33    34   ar
    26    34    35   ar
    27    35    40    1
    28    40    41    2
    29    40    42   am
    30    42    43    1
    31    42    44    1
    32    44    45    1
    33    45    46    1
    34    46    47    1
    35    35    36   ar
    36    36    37   ar
    37    37    38    1
    38    37    39   ar
    39     9    10    1
    40    11    10    1
    41    11    12    1
    42    12    13   am
    43    13    14    2
    44    13    15   am
    45    15    49    1
    46    49    50    1
    47    50    51   ar
    48    51    52   ar
    49    52    53   ar
    50    53    54   ar
    51    54    55   ar
    52    12     1    1
    53    55    50   ar
    54    11     5    1
    55    27    21   ar
    56    39    30   ar
    57    39    34   ar
    58    25    28    1
    59    47    48    1
    60    15    16    1
@<TRIPOS>MOLECULE
*****
 55 60 0 0 0
SMALL
GASTEIGER

@<TRIPOS>ATOM
      1 N          62.3577   84.3113    9.2845 N.3     1  UNL1       -0.1862
      2 C          61.5209   84.4464    8.0469 C.3     1  UNL1        0.1775
      3 C          60.7931   85.7284    7.7699 C.2     1  UNL1        0.2452
      4 O          59.9563   85.8634    6.5323 O.2     1  UNL1       -0.2732
      5 N          60.9021   86.8753    8.7304 N.am    1  UNL1       -0.2541
      6 C          60.1743   88.1573    8.4533 C.3     1  UNL1        0.1577
      7 C          60.2832   89.3043    9.4138 C.2     1  UNL1        0.2445
      8 O          59.5554   90.5863    9.1368 O.2     1  UNL1       -0.2731
      9 N          61.1200   89.1693   10.6514 N.am    1  UNL1       -0.2705
     10 C          61.8478   87.8873   10.9285 C.3     1  UNL1        0.1359
     11 C          61.7388   86.7403    9.9679 C.3     1  UNL1        0.1908
     12 N          62.4667   85.4583   10.2449 N.am    1  UNL1       -0.1863
     13 C          63.3035   85.3233   11.4826 C.2     1  UNL1        0.3191
     14 O          63.4124   86.4702   12.4430 O.2     1  UNL1       -0.2512
     15 N          64.0313   84.0412   11.7596 N.am    1  UNL1       -0.2836
     16 H          63.9598   83.2885   11.1292 H       1  UNL1        0.1513
     17 C          63.0855   83.0293    9.5615 C.3     1  UNL1        0.1188
     18 C          63.1017   80.6636   10.6352 C.2     1  UNL1       -0.0034
     19 C          62.5224   82.0441   10.5424 C.2     1  UNL1       -0.0071
     20 C          59.3375   88.2924    7.2158 C.3     1  UNL1        0.0556
     21 C          59.4258   89.5367    6.3828 C.ar    1  UNL1       -0.0198
     22 C          58.1850   90.3187    6.0688 C.ar    1  UNL1       -0.0011
     23 C          58.2733   91.5630    5.2358 C.ar    1  UNL1        0.0363
     24 C          59.6025   92.0253    4.7168 C.ar    1  UNL1        0.1337
     25 O          59.6909   93.2696    3.8838 O.3     1  UNL1       -0.5055
     26 C          60.8435   91.2433    5.0308 C.ar    1  UNL1        0.0363
     27 C          60.7552   89.9990    5.8638 C.ar    1  UNL1       -0.0011
     28 H          58.9157   93.7581    3.6876 H       1  UNL1        0.2922
     29 C          61.2290   90.3162   11.6119 C.3     1  UNL1        0.1217
     30 C          62.3719   90.3765   12.5817 C.ar    1  UNL1        0.0135
     31 C          62.2257   89.7817   13.9509 C.ar    1  UNL1       -0.0012
     32 C          63.3685   89.8419   14.9206 C.ar    1  UNL1       -0.0002
     33 C          64.6574   90.4969   14.5211 C.ar    1  UNL1        0.0016
     34 C          64.8035   91.0916   13.1518 C.ar    1  UNL1        0.0214
     35 C          65.9447   91.7964   12.4802 C.ar    1  UNL1        0.0721
     36 C          65.5071   92.1718   11.0954 C.ar    1  UNL1        0.0805
     37 N          64.0956   91.6990   10.9112 N.ar    1  UNL1       -0.3241
     38 C          63.2648   91.8647    9.6734 C.3     1  UNL1        0.1305
     39 C          63.6608   91.0314   12.1821 C.ar    1  UNL1        0.0577
     40 C          67.2876   92.0767   13.0869 C.2     1  UNL1        0.2506
     41 O          68.5376   91.6922   12.3521 O.2     1  UNL1       -0.2699
     42 N          67.3806   92.7414   14.4284 N.am    1  UNL1       -0.2742
     43 C          68.7235   93.0216   15.0351 C.3     1  UNL1        0.1152
     44 C          66.1306   93.1258   15.1631 C.3     1  UNL1        0.0964
     45 C          65.9560   92.7360   16.6010 C.3     1  UNL1        0.0532
     46 C          64.5953   92.3783   17.1211 C.3     1  UNL1        0.1389
     47 O          63.5383   93.4352   17.2458 O.3     1  UNL1       -0.3819
     48 H          63.8046   94.0811   17.9187 H       1  UNL1        0.2104
     49 C          64.8681   83.9062   12.9971 C.3     1  UNL1        0.1177
     50 C          64.3844   84.4801   14.2959 C.ar    1  UNL1       -0.0025
     51 C          63.2791   83.8021   15.0500 C.ar    1  UNL1       -0.0026
     52 C          62.7955   84.3760   16.3488 C.ar    1  UNL1       -0.0003
     53 C          63.4170   85.6278   16.8933 C.ar    1  UNL1       -0.0000
     54 C          64.5223   86.3058   16.1392 C.ar    1  UNL1       -0.0003
     55 C          65.0060   85.7319   14.8404 C.ar    1  UNL1       -0.0026
@<TRIPOS>BOND
     1    18    19    2
     2    19    17    1
     3    17     1    1
     4     1     2    1
     5     2     3    1
     6     3     4    2
     7     3     5   am
     8     5     6    1
     9     6    20    1
    10    20    21    1
    11    21    22   ar
    12    22    23   ar
    13    23    24   ar
    14    24    25    1
    15    24    26   ar
    16    26    27   ar
    17     6     7    1
    18     7     8    2
    19     7     9   am
    20     9    29    1
    21    29    30    1
    22    30    31   ar
    23    31    32   ar
    24    32    33   ar
    25    33    34   ar
    26    34    35   ar
    27    35    40    1
    28    40    41    2
    29    40    42   am
    30    42    43    1
    31    42    44    1
    32    44    45    1
    33    45    46    1
    34    46    47    1
    35    35    36   ar
    36    36    37   ar
    37    37    38    1
    38    37    39   ar
    39     9    10    1
    40    11    10    1
    41    11    12    1
    42    12    13   am
    43    13    14    2
    44    13    15   am
    45    15    49    1
    46    49    50    1
    47    50    51   ar
    48    51    52   ar
    49    52    53   ar
    50    53    54   ar
    51    54    55   ar
    52    12     1    1
    53    55    50   ar
    54    11     5    1
    55    27    21   ar
    56    39    30   ar
    57    39    34   ar
    58    25    28    1
    59    47    48    1
    60    15    16    1
@<TRIPOS>MOLECULE
*****
 55 60 0 0 0
SMALL
GASTEIGER

@<TRIPOS>ATOM
      1 N          61.0148   85.6835    8.1993 N.3     1  UNL1       -0.1862
      2 C          61.8452   84.5309    8.6808 C.3     1  UNL1        0.1775
      3 C          62.6569   84.6636    9.9352 C.2     1  UNL1        0.2452
      4 O          63.4872   83.5108   10.4167 O.2     1  UNL1       -0.2732
      5 N          62.6382   85.9489   10.7081 N.am    1  UNL1       -0.2541
      6 C          63.4499   86.0816   11.9625 C.3     1  UNL1        0.1577
      7 C          63.4312   87.3670   12.7355 C.2     1  UNL1        0.2445
      8 O          64.2429   87.4997   13.9899 O.2     1  UNL1       -0.2731
      9 N          62.6009   88.5197   12.2540 N.am    1  UNL1       -0.2705
     10 C          61.7892   88.3870   10.9996 C.3     1  UNL1        0.1359
     11 C          61.8079   87.1016   10.2266 C.3     1  UNL1        0.1908
     12 N          60.9962   86.9689    8.9722 N.am    1  UNL1       -0.1863
     13 C          60.1658   88.1216    8.4907 C.2     1  UNL1        0.3191
     14 O          60.1472   89.4070    9.2637 O.2     1  UNL1       -0.2512
     15 N          59.3541   87.9889    7.2363 N.am    1  UNL1       -0.2836
     16 H          59.3664   87.1453    6.7290 H       1  UNL1        0.1513
     17 C          60.2032   85.5508    6.9449 C.3     1  UNL1        0.1188
     18 C          61.9640   84.3861    5.4307 C.2     1  UNL1       -0.0034
     19 C          60.5548   84.5024    5.9314 C.2     1  UNL1       -0.0071
     20 C          64.2802   84.9290   12.4440 C.3     1  UNL1        0.0556
     21 C          63.6158   83.7225   13.0381 C.ar    1  UNL1       -0.0198
     22 C          64.1416   82.3509   12.7344 C.ar    1  UNL1       -0.0011
     23 C          63.4772   81.1445   13.3285 C.ar    1  UNL1        0.0363
     24 C          62.2870   81.3096   14.2263 C.ar    1  UNL1        0.1337
     25 O          61.6225   80.1031   14.8204 O.3     1  UNL1       -0.5055
     26 C          61.7611   82.6812   14.5300 C.ar    1  UNL1        0.0363
     27 C          62.4255   83.8877   13.9359 C.ar    1  UNL1       -0.0011
     28 H          61.9510   79.2463   14.6307 H       1  UNL1        0.2922
     29 C          62.5822   89.8051   13.0269 C.3     1  UNL1        0.1217
     30 C          63.5776   90.8829   12.7141 C.ar    1  UNL1        0.0135
     31 C          63.7790   91.3292   11.2963 C.ar    1  UNL1       -0.0012
     32 C          64.7743   92.4069   10.9835 C.ar    1  UNL1       -0.0002
     33 C          65.5682   93.0383   12.0886 C.ar    1  UNL1        0.0016
     34 C          65.3667   92.5920   13.5064 C.ar    1  UNL1        0.0214
     35 C          65.9996   93.0266   14.7950 C.ar    1  UNL1        0.0721
     36 C          65.3954   92.2175   15.9042 C.ar    1  UNL1        0.0805
     37 N          64.3892   91.2829   15.3011 N.ar    1  UNL1       -0.3241
     38 C          63.5483   90.2909   16.0486 C.3     1  UNL1        0.1305
     39 C          64.3714   91.5143   13.8192 C.ar    1  UNL1        0.0577
     40 C          67.0519   94.0847   14.9476 C.2     1  UNL1        0.2506
     41 O          66.8362   95.4474   14.3591 O.2     1  UNL1       -0.2699
     42 N          68.3199   93.7799   15.6889 N.am    1  UNL1       -0.2742
     43 C          69.3722   94.8379   15.8415 C.3     1  UNL1        0.1152
     44 C          68.5355   92.4171   16.2774 C.3     1  UNL1        0.0964
     45 C          68.7110   91.2305   15.3768 C.3     1  UNL1        0.0532
     46 C          68.8884   91.4290   13.9006 C.3     1  UNL1        0.1389
     47 O          70.1754   91.9857   13.3681 O.3     1  UNL1       -0.3819
     48 H          70.2804   92.9019   13.6688 H       1  UNL1        0.2104
     49 C          58.5238   89.1416    6.7548 C.3     1  UNL1        0.1177
     50 C          59.1190   90.1587    5.8268 C.ar    1  UNL1       -0.0025
     51 C          60.5848   90.1187    5.5109 C.ar    1  UNL1       -0.0026
     52 C          61.1800   91.1359    4.5829 C.ar    1  UNL1       -0.0003
     53 C          60.3094   92.1930    3.9708 C.ar    1  UNL1       -0.0000
     54 C          58.8435   92.2329    4.2868 C.ar    1  UNL1       -0.0003
     55 C          58.2483   91.2158    5.2148 C.ar    1  UNL1       -0.0026
@<TRIPOS>BOND
     1    18    19    2
     2    19    17    1
     3    17     1    1
     4     1     2    1
     5     2     3    1
     6     3     4    2
     7     3     5   am
     8     5     6    1
     9     6    20    1
    10    20    21    1
    11    21    22   ar
    12    22    23   ar
    13    23    24   ar
    14    24    25    1
    15    24    26   ar
    16    26    27   ar
    17     6     7    1
    18     7     8    2
    19     7     9   am
    20     9    29    1
    21    29    30    1
    22    30    31   ar
    23    31    32   ar
    24    32    33   ar
    25    33    34   ar
    26    34    35   ar
    27    35    40    1
    28    40    41    2
    29    40    42   am
    30    42    43    1
    31    42    44    1
    32    44    45    1
    33    45    46    1
    34    46    47    1
    35    35    36   ar
    36    36    37   ar
    37    37    38    1
    38    37    39   ar
    39     9    10    1
    40    11    10    1
    41    11    12    1
    42    12    13   am
    43    13    14    2
    44    13    15   am
    45    15    49    1
    46    49    50    1
    47    50    51   ar
    48    51    52   ar
    49    52    53   ar
    50    53    54   ar
    51    54    55   ar
    52    12     1    1
    53    55    50   ar
    54    11     5    1
    55    27    21   ar
    56    39    30   ar
    57    39    34   ar
    58    25    28    1
    59    47    48    1
    60    15    16    1
@<TRIPOS>MOLECULE
*****
 55 60 0 0 0
SMALL
GASTEIGER

@<TRIPOS>ATOM
      1 N          61.2732   85.7890    8.0454 N.3     1  UNL1       -0.1862
      2 C          62.2286   84.7361    8.5233 C.3     1  UNL1        0.1775
      3 C          62.8937   84.8780    9.8603 C.2     1  UNL1        0.2452
      4 O          63.8492   83.8250   10.3383 O.2     1  UNL1       -0.2732
      5 N          62.6034   86.0729   10.7194 N.am    1  UNL1       -0.2541
      6 C          63.2684   86.2148   12.0564 C.3     1  UNL1        0.1577
      7 C          62.9781   87.4096   12.9154 C.2     1  UNL1        0.2445
      8 O          63.6431   87.5516   14.2524 O.2     1  UNL1       -0.2731
      9 N          62.0226   88.4626   12.4375 N.am    1  UNL1       -0.2705
     10 C          61.3575   88.3207   11.1005 C.3     1  UNL1        0.1359
     11 C          61.6479   87.1258   10.2414 C.3     1  UNL1        0.1908
     12 N          60.9829   86.9838    8.9044 N.am    1  UNL1       -0.1863
     13 C          60.0274   88.0368    8.4265 C.2     1  UNL1        0.3191
     14 O          59.7370   89.2317    9.2855 O.2     1  UNL1       -0.2512
     15 N          59.3623   87.8949    7.0895 N.am    1  UNL1       -0.2836
     16 H          59.5529   87.1107    6.5257 H       1  UNL1        0.1513
     17 C          60.6082   85.6471    6.7084 C.3     1  UNL1        0.1188
     18 C          62.3164   84.3639    5.2302 C.2     1  UNL1       -0.0034
     19 C          60.9439   84.4834    5.8235 C.2     1  UNL1       -0.0071
     20 C          64.2238   85.1619   12.5343 C.3     1  UNL1        0.0556
     21 C          63.7003   83.8719   13.0928 C.ar    1  UNL1       -0.0198
     22 C          64.3508   82.5734   12.7176 C.ar    1  UNL1       -0.0011
     23 C          63.8273   81.2834   13.2760 C.ar    1  UNL1        0.0363
     24 C          62.6533   81.2919   14.2097 C.ar    1  UNL1        0.1337
     25 O          62.1298   80.0019   14.7681 O.3     1  UNL1       -0.5055
     26 C          62.0028   82.5904   14.5849 C.ar    1  UNL1        0.0363
     27 C          62.5263   83.8804   14.0265 C.ar    1  UNL1       -0.0011
     28 H          62.5362   79.1908   14.5338 H       1  UNL1        0.2922
     29 C          61.7322   89.6575   13.2965 C.3     1  UNL1        0.1217
     30 C          62.7337   90.1076   14.3185 C.ar    1  UNL1        0.0135
     31 C          62.5530   89.7355   15.7603 C.ar    1  UNL1       -0.0012
     32 C          63.5544   90.1856   16.7823 C.ar    1  UNL1       -0.0002
     33 C          64.7366   91.0079   16.3625 C.ar    1  UNL1        0.0016
     34 C          64.9173   91.3801   14.9206 C.ar    1  UNL1        0.0214
     35 C          65.9751   92.1751   14.2142 C.ar    1  UNL1        0.0721
     36 C          65.6274   92.2163   12.7557 C.ar    1  UNL1        0.0805
     37 N          64.3548   91.4468   12.5607 N.ar    1  UNL1       -0.3241
     38 C          63.6455   91.2318   11.2566 C.3     1  UNL1        0.1305
     39 C          63.9159   90.9300   13.8987 C.ar    1  UNL1        0.0577
     40 C          67.1707   92.8163   14.8541 C.2     1  UNL1        0.2506
     41 O          66.9857   93.8079   15.9644 O.2     1  UNL1       -0.2699
     42 N          68.5513   92.4661   14.3837 N.am    1  UNL1       -0.2742
     43 C          69.7469   93.1072   15.0235 C.3     1  UNL1        0.1152
     44 C          68.7362   91.4745   13.2734 C.3     1  UNL1        0.0964
     45 C          69.1281   91.9460   11.9044 C.3     1  UNL1        0.0532
     46 C          68.1140   91.9664   10.7994 C.3     1  UNL1        0.1389
     47 O          67.8757   93.2277   10.0233 O.3     1  UNL1       -0.3819
     48 H          67.4920   93.8997   10.6082 H       1  UNL1        0.2104
     49 C          58.4069   88.9478    6.6115 C.3     1  UNL1        0.1177
     50 C          58.9058   90.0905    5.7776 C.ar    1  UNL1       -0.0025
     51 C          60.3737   90.2351    5.5049 C.ar    1  UNL1       -0.0026
     52 C          60.8726   91.3777    4.6710 C.ar    1  UNL1       -0.0003
     53 C          59.9037   92.3758    4.1098 C.ar    1  UNL1       -0.0000
     54 C          58.4357   92.2312    4.3824 C.ar    1  UNL1       -0.0003
     55 C          57.9368   91.0885    5.2164 C.ar    1  UNL1       -0.0026
@<TRIPOS>BOND
     1    18    19    2
     2    19    17    1
     3    17     1    1
     4     1     2    1
     5     2     3    1
     6     3     4    2
     7     3     5   am
     8     5     6    1
     9     6    20    1
    10    20    21    1
    11    21    22   ar
    12    22    23   ar
    13    23    24   ar
    14    24    25    1
    15    24    26   ar
    16    26    27   ar
    17     6     7    1
    18     7     8    2
    19     7     9   am
    20     9    29    1
    21    29    30    1
    22    30    31   ar
    23    31    32   ar
    24    32    33   ar
    25    33    34   ar
    26    34    35   ar
    27    35    40    1
    28    40    41    2
    29    40    42   am
    30    42    43    1
    31    42    44    1
    32    44    45    1
    33    45    46    1
    34    46    47    1
    35    35    36   ar
    36    36    37   ar
    37    37    38    1
    38    37    39   ar
    39     9    10    1
    40    11    10    1
    41    11    12    1
    42    12    13   am
    43    13    14    2
    44    13    15   am
    45    15    49    1
    46    49    50    1
    47    50    51   ar
    48    51    52   ar
    49    52    53   ar
    50    53    54   ar
    51    54    55   ar
    52    12     1    1
    53    55    50   ar
    54    11     5    1
    55    27    21   ar
    56    39    30   ar
    57    39    34   ar
    58    25    28    1
    59    47    48    1
    60    15    16    1
@<TRIPOS>MOLECULE
*****
 55 60 0 0 0
SMALL
GASTEIGER

@<TRIPOS>ATOM
      1 N          61.9904   84.5308   10.1592 N.3     1  UNL1       -0.1862
      2 C          61.1915   84.5097    8.8898 C.3     1  UNL1        0.1775
      3 C          60.6523   85.7889    8.3216 C.2     1  UNL1        0.2452
      4 O          59.8534   85.7678    7.0522 O.2     1  UNL1       -0.2732
      5 N          60.9120   87.0892    9.0228 N.am    1  UNL1       -0.2541
      6 C          60.3728   88.3685    8.4547 C.3     1  UNL1        0.1577
      7 C          60.6325   89.6688    9.1558 C.2     1  UNL1        0.2445
      8 O          60.0933   90.9480    8.5877 O.2     1  UNL1       -0.2731
      9 N          61.4313   89.6899   10.4253 N.am    1  UNL1       -0.2705
     10 C          61.9705   88.4107   10.9935 C.3     1  UNL1        0.1359
     11 C          61.7108   87.1103   10.2922 C.3     1  UNL1        0.1908
     12 N          62.2500   85.8311   10.8604 N.am    1  UNL1       -0.1863
     13 C          63.0489   85.8522   12.1298 C.2     1  UNL1        0.3191
     14 O          63.3086   87.1525   12.8310 O.2     1  UNL1       -0.2512
     15 N          63.5881   84.5730   12.6980 N.am    1  UNL1       -0.2836
     16 H          63.4177   83.7195   12.2378 H       1  UNL1        0.1513
     17 C          62.5296   83.2515   10.7274 C.3     1  UNL1        0.1188
     18 C          64.7728   82.0410   11.2297 C.2     1  UNL1       -0.0034
     19 C          63.8531   82.7225   10.2603 C.2     1  UNL1       -0.0071
     20 C          59.5740   88.3474    7.1853 C.3     1  UNL1        0.0556
     21 C          59.5289   89.5627    6.3072 C.ar    1  UNL1       -0.0198
     22 C          60.7842   90.0666    5.6590 C.ar    1  UNL1       -0.0011
     23 C          60.7391   91.2819    4.7809 C.ar    1  UNL1        0.0363
     24 C          59.4387   91.9933    4.5511 C.ar    1  UNL1        0.1337
     25 O          59.3936   93.2086    3.6730 O.3     1  UNL1       -0.5055
     26 C          58.1833   91.4894    5.1993 C.ar    1  UNL1        0.0363
     27 C          58.2284   90.2741    6.0774 C.ar    1  UNL1       -0.0011
     28 H          60.1778   93.5234    3.2680 H       1  UNL1        0.2922
     29 C          61.6910   90.9902   11.1265 C.3     1  UNL1        0.1217
     30 C          63.0631   91.5958   11.0999 C.ar    1  UNL1        0.0135
     31 C          63.4878   92.4402    9.9352 C.ar    1  UNL1       -0.0012
     32 C          64.8598   93.0458    9.9085 C.ar    1  UNL1       -0.0002
     33 C          65.8072   92.8068   11.0466 C.ar    1  UNL1        0.0016
     34 C          65.3826   91.9623   12.2113 C.ar    1  UNL1        0.0214
     35 C          66.0937   91.5546   13.4675 C.ar    1  UNL1        0.0721
     36 C          65.1611   90.6970   14.2705 C.ar    1  UNL1        0.0805
     37 N          63.8737   90.5748   13.5106 N.ar    1  UNL1       -0.3241
     38 C          62.6620   89.8056   13.9468 C.3     1  UNL1        0.1305
     39 C          64.0106   91.3568   12.2380 C.ar    1  UNL1        0.0577
     40 C          67.4920   91.9372   13.8531 C.2     1  UNL1        0.2506
     41 O          68.6541   91.4505   13.0392 O.2     1  UNL1       -0.2699
     42 N          67.7280   92.8065   15.0524 N.am    1  UNL1       -0.2742
     43 C          69.1261   93.1892   15.4380 C.3     1  UNL1        0.1152
     44 C          66.5657   93.2932   15.8663 C.3     1  UNL1        0.0964
     45 C          65.9080   92.3783   16.8564 C.3     1  UNL1        0.0532
     46 C          64.5055   92.6511   17.3131 C.3     1  UNL1        0.1389
     47 O          63.3456   92.0623   16.5661 O.3     1  UNL1       -0.3819
     48 H          63.3045   92.4475   15.6769 H       1  UNL1        0.2104
     49 C          64.3869   84.5940   13.9674 C.3     1  UNL1        0.1177
     50 C          63.8774   85.3448   15.1618 C.ar    1  UNL1       -0.0025
     51 C          64.3297   86.7530   15.4115 C.ar    1  UNL1       -0.0026
     52 C          63.8202   87.5037   16.6060 C.ar    1  UNL1       -0.0003
     53 C          62.8584   86.8463   17.5508 C.ar    1  UNL1       -0.0000
     54 C          62.4060   85.4381   17.3011 C.ar    1  UNL1       -0.0003
     55 C          62.9155   84.6873   16.1066 C.ar    1  UNL1       -0.0026
@<TRIPOS>BOND
     1    18    19    2
     2    19    17    1
     3    17     1    1
     4     1     2    1
     5     2     3    1
     6     3     4    2
     7     3     5   am
     8     5     6    1
     9     6    20    1
    10    20    21    1
    11    21    22   ar
    12    22    23   ar
    13    23    24   ar
    14    24    25    1
    15    24    26   ar
    16    26    27   ar
    17     6     7    1
    18     7     8    2
    19     7     9   am
    20     9    29    1
    21    29    30    1
    22    30    31   ar
    23    31    32   ar
    24    32    33   ar
    25    33    34   ar
    26    34    35   ar
    27    35    40    1
    28    40    41    2
    29    40    42   am
    30    42    43    1
    31    42    44    1
    32    44    45    1
    33    45    46    1
    34    46    47    1
    35    35    36   ar
    36    36    37   ar
    37    37    38    1
    38    37    39   ar
    39     9    10    1
    40    11    10    1
    41    11    12    1
    42    12    13   am
    43    13    14    2
    44    13    15   am
    45    15    49    1
    46    49    50    1
    47    50    51   ar
    48    51    52   ar
    49    52    53   ar
    50    53    54   ar
    51    54    55   ar
    52    12     1    1
    53    55    50   ar
    54    11     5    1
    55    27    21   ar
    56    39    30   ar
    57    39    34   ar
    58    25    28    1
    59    47    48    1
    60    15    16    1
