@<TRIPOS>MOLECULE
*****
 31 36 0 0 0
SMALL
GASTEIGER

@<TRIPOS>ATOM
      1 C          62.0084   85.8455   11.5237 C.3     1  UNL1        0.0325
      2 C          62.9106   86.3462   12.6124 C.ar    1  UNL1       -0.0060
      3 C          63.4498   85.3929   13.6374 C.ar    1  UNL1       -0.0025
      4 C          64.3520   85.8936   14.7261 C.ar    1  UNL1       -0.0003
      5 C          64.7150   87.3476   14.7899 C.ar    1  UNL1        0.0045
      6 C          64.1759   88.3010   13.7650 C.ar    1  UNL1        0.0518
      7 C          64.5390   89.7550   13.8287 C.ar    1  UNL1        0.1704
      8 O          65.4003   90.5337   14.7783 O.2     1  UNL1       -0.4368
      9 C          65.3935   91.9682   14.3402 C.ar    1  UNL1        0.2217
     10 N          64.5279   92.0762   13.1198 N.ar    1  UNL1       -0.2060
     11 C          63.9998   90.7083   12.8037 C.ar    1  UNL1        0.1744
     12 C          63.0976   90.2076   11.7150 C.ar    1  UNL1        0.2816
     13 O          62.5584   91.1608   10.6900 O.2     1  UNL1       -0.2652
     14 N          62.7346   88.7536   11.6513 N.ar    1  UNL1       -0.2963
     15 C          63.2737   87.8003   12.6762 C.ar    1  UNL1        0.0614
     16 C          63.0867   83.9389   13.5736 C.2     1  UNL1        0.0290
     17 C          62.4531   83.2715   14.7581 C.2     1  UNL1        0.2320
     18 N          62.0900   81.8175   14.6944 N.2     1  UNL1       -0.0292
     19 C          62.3606   81.0309   13.4462 C.2     1  UNL1        0.3995
     20 N          62.1140   79.5944   13.0919 N.2     1  UNL1        0.0864
     21 N          62.5953   79.3740   11.6884 N.2     1  UNL1       -0.0324
     22 C          63.1393   80.6742   11.1753 C.2     1  UNL1        0.1528
     23 C          62.9942   81.6983   12.2617 C.2     1  UNL1        0.0958
     24 C          63.3573   83.1524   12.3254 C.3     1  UNL1        0.0662
     25 C          66.1240   93.0968   15.0056 C.3     1  UNL1        0.1518
     26 N          66.4159   93.0380   16.4757 N.3     1  UNL1       -0.3134
     27 H          65.5402   93.0701   16.9977 H       1  UNL1        0.1193
     28 H          66.9980   93.8331   16.7389 H       1  UNL1        0.1193
     29 C          61.8323   88.2529   10.5625 C.3     1  UNL1        0.0885
     30 C          60.4562   88.0884    9.9886 C.3     1  UNL1        0.0246
     31 C          61.6459   87.5502    9.2504 C.3     1  UNL1        0.0246
@<TRIPOS>BOND
     1     1     2    1
     2     2     3   ar
     3     3    16    1
     4    16    17    2
     5    17    18    1
     6    18    19    2
     7    19    20    1
     8    20    21    2
     9    21    22    1
    10    22    23    2
    11    23    24    1
    12     3     4   ar
    13     4     5   ar
    14     5     6   ar
    15     6     7   ar
    16     7     8   ar
    17     8     9   ar
    18     9    25    1
    19    25    26    1
    20     9    10   ar
    21    10    11   ar
    22    11    12   ar
    23    12    13    2
    24    12    14   ar
    25    14    29    1
    26    29    30    1
    27    30    31    1
    28    14    15   ar
    29    15     2   ar
    30    24    16    1
    31    15     6   ar
    32    23    19    1
    33    11     7   ar
    34    31    29    1
    35    26    27    1
    36    26    28    1
@<TRIPOS>MOLECULE
*****
 31 36 0 0 0
SMALL
GASTEIGER

@<TRIPOS>ATOM
      1 C          64.7903   88.0422   14.7134 C.3     1  UNL1        0.0325
      2 C          64.1086   88.6309   13.5140 C.ar    1  UNL1       -0.0060
      3 C          64.2083   90.1027   13.2418 C.ar    1  UNL1       -0.0025
      4 C          63.5265   90.6914   12.0424 C.ar    1  UNL1       -0.0003
      5 C          62.7451   89.8086   11.1152 C.ar    1  UNL1        0.0045
      6 C          62.6453   88.3368   11.3873 C.ar    1  UNL1        0.0518
      7 C          61.8639   87.4538   10.4601 C.ar    1  UNL1        0.1704
      8 O          61.0913   87.7471    9.2083 O.2     1  UNL1       -0.4368
      9 C          60.5141   86.4567    8.7068 C.ar    1  UNL1        0.2217
     10 N          60.9300   85.3658    9.6487 N.ar    1  UNL1       -0.2060
     11 C          61.7642   85.9821   10.7323 C.ar    1  UNL1        0.1744
     12 C          62.4459   85.3933   11.9317 C.ar    1  UNL1        0.2816
     13 O          62.3462   83.9216   12.2039 O.2     1  UNL1       -0.2652
     14 N          63.2274   86.2763   12.8589 N.ar    1  UNL1       -0.2963
     15 C          63.3271   87.7479   12.5867 C.ar    1  UNL1        0.0614
     16 C          64.9897   90.9856   14.1690 C.2     1  UNL1        0.0290
     17 C          64.3495   91.5146   15.4181 C.2     1  UNL1        0.2320
     18 N          65.1308   92.3975   16.3454 N.2     1  UNL1       -0.0292
     19 C          66.5525   92.7516   16.0236 C.2     1  UNL1        0.3995
     20 N          67.5643   93.5943   16.7419 N.2     1  UNL1        0.0864
     21 N          68.8299   93.5861   15.9368 N.2     1  UNL1       -0.0324
     22 C          68.6003   92.7384   14.7208 C.2     1  UNL1        0.1528
     23 C          67.1927   92.2226   14.7745 C.2     1  UNL1        0.0958
     24 C          66.4113   91.3396   13.8471 C.3     1  UNL1        0.0662
     25 C          59.6693   86.2868    7.4790 C.3     1  UNL1        0.1518
     26 N          58.2256   86.6933    7.4998 N.3     1  UNL1       -0.3134
     27 H          57.7124   86.0922    8.1445 H       1  UNL1        0.1193
     28 H          57.8328   86.6008    6.5630 H       1  UNL1        0.1193
     29 C          63.9091   85.6874   14.0583 C.3     1  UNL1        0.0885
     30 C          63.9059   85.3528   15.5205 C.3     1  UNL1        0.0246
     31 C          65.0932   85.0021   14.6735 C.3     1  UNL1        0.0246
@<TRIPOS>BOND
     1     1     2    1
     2     2     3   ar
     3     3    16    1
     4    16    17    2
     5    17    18    1
     6    18    19    2
     7    19    20    1
     8    20    21    2
     9    21    22    1
    10    22    23    2
    11    23    24    1
    12     3     4   ar
    13     4     5   ar
    14     5     6   ar
    15     6     7   ar
    16     7     8   ar
    17     8     9   ar
    18     9    25    1
    19    25    26    1
    20     9    10   ar
    21    10    11   ar
    22    11    12   ar
    23    12    13    2
    24    12    14   ar
    25    14    29    1
    26    29    30    1
    27    30    31    1
    28    14    15   ar
    29    15     2   ar
    30    24    16    1
    31    15     6   ar
    32    23    19    1
    33    11     7   ar
    34    31    29    1
    35    26    27    1
    36    26    28    1
@<TRIPOS>MOLECULE
*****
 31 36 0 0 0
SMALL
GASTEIGER

@<TRIPOS>ATOM
      1 C          63.1393   89.5277   12.3180 C.3     1  UNL1        0.0325
      2 C          63.5269   88.2773   13.0504 C.ar    1  UNL1       -0.0060
      3 C          64.2928   88.3685   14.3368 C.ar    1  UNL1       -0.0025
      4 C          64.6804   87.1182   15.0693 C.ar    1  UNL1       -0.0003
      5 C          64.3020   85.7766   14.5153 C.ar    1  UNL1        0.0045
      6 C          63.5360   85.6853   13.2288 C.ar    1  UNL1        0.0518
      7 C          63.1575   84.3437   12.6748 C.ar    1  UNL1        0.1704
      8 O          63.3993   82.9488   13.1703 O.2     1  UNL1       -0.4368
      9 C          62.7827   81.9954   12.1901 C.ar    1  UNL1        0.2217
     10 N          62.1599   82.8011   11.0888 N.ar    1  UNL1       -0.2060
     11 C          62.3916   84.2525   11.3884 C.ar    1  UNL1        0.1744
     12 C          62.0040   85.5029   10.6559 C.ar    1  UNL1        0.2816
     13 O          61.2380   85.4116    9.3695 O.2     1  UNL1       -0.2652
     14 N          62.3825   86.8444   11.2100 N.ar    1  UNL1       -0.2963
     15 C          63.1484   86.9357   12.4963 C.ar    1  UNL1        0.0614
     16 C          64.6713   89.7101   14.8909 C.2     1  UNL1        0.0290
     17 C          63.7239   90.4430   15.7939 C.2     1  UNL1        0.2320
     18 N          64.1023   91.7845   16.3480 N.2     1  UNL1       -0.0292
     19 C          65.4281   92.3933   15.9990 C.2     1  UNL1        0.3995
     20 N          66.0711   93.6906   16.3907 N.2     1  UNL1        0.0864
     21 N          67.4158   93.7596   15.7297 N.2     1  UNL1       -0.0324
     22 C          67.6040   92.5049   14.9295 C.2     1  UNL1        0.1528
     23 C          66.3754   91.6605   15.0960 C.2     1  UNL1        0.0958
     24 C          65.9971   90.3188   14.5419 C.3     1  UNL1        0.0662
     25 C          62.7879   80.4989   12.2931 C.3     1  UNL1        0.1518
     26 N          62.1203   79.8247   13.4549 N.3     1  UNL1       -0.3134
     27 H          62.6180   80.0567   14.3145 H       1  UNL1        0.1193
     28 H          62.1346   78.8144   13.3158 H       1  UNL1        0.1193
     29 C          61.9949   88.0948   10.4775 C.3     1  UNL1        0.0885
     30 C          60.9377   89.0449    9.9984 C.3     1  UNL1        0.0246
     31 C          62.3810   89.3103    9.6878 C.3     1  UNL1        0.0246
@<TRIPOS>BOND
     1     1     2    1
     2     2     3   ar
     3     3    16    1
     4    16    17    2
     5    17    18    1
     6    18    19    2
     7    19    20    1
     8    20    21    2
     9    21    22    1
    10    22    23    2
    11    23    24    1
    12     3     4   ar
    13     4     5   ar
    14     5     6   ar
    15     6     7   ar
    16     7     8   ar
    17     8     9   ar
    18     9    25    1
    19    25    26    1
    20     9    10   ar
    21    10    11   ar
    22    11    12   ar
    23    12    13    2
    24    12    14   ar
    25    14    29    1
    26    29    30    1
    27    30    31    1
    28    14    15   ar
    29    15     2   ar
    30    24    16    1
    31    15     6   ar
    32    23    19    1
    33    11     7   ar
    34    31    29    1
    35    26    27    1
    36    26    28    1
