@<TRIPOS>MOLECULE
*****
 33 37 0 0 0
SMALL
GASTEIGER

@<TRIPOS>ATOM
      1 C          62.0675   89.4336   11.0295 C.ar    1  UNL1        0.0990
      2 C          60.8045   90.1239   10.6073 C.ar    1  UNL1        0.0207
      3 C          59.8728   89.4568    9.6394 C.ar    1  UNL1        0.0032
      4 C          60.2041   88.0995    9.0936 C.ar    1  UNL1        0.0207
      5 C          59.2724   87.4324    8.1257 C.ar    1  UNL1        0.0017
      6 C          59.6037   86.0750    7.5799 C.ar    1  UNL1        0.0032
      7 C          60.8668   85.3848    8.0022 C.ar    1  UNL1        0.0385
      8 C          61.7984   86.0518    8.9701 C.ar    1  UNL1        0.1559
      9 C          61.4671   87.4092    9.5158 C.ar    1  UNL1        0.1151
     10 N          62.3988   88.0763   10.4838 N.ar    1  UNL1       -0.2408
     11 C          65.8951   93.5023   11.6868 C.ar    1  UNL1        0.1432
     12 C          65.1476   93.1583   10.4326 C.ar    1  UNL1        0.0560
     13 C          64.1550   92.0337   10.4357 C.ar    1  UNL1        0.0846
     14 N          63.9099   91.2531   11.6930 N.ar    1  UNL1       -0.2872
     15 C          62.9992   90.1007   11.9975 C.ar    1  UNL1        0.1021
     16 C          63.1839   89.7325   13.4398 C.ar    1  UNL1        0.1195
     17 N          64.2087   90.6574   14.0267 N.ar    1  UNL1       -0.2247
     18 C          64.6574   91.5972   12.9471 C.ar    1  UNL1        0.1509
     19 C          65.6500   92.7217   12.9440 C.ar    1  UNL1        0.0743
     20 O          66.8877   94.6268   11.6837 O.3     1  UNL1       -0.4726
     21 C          67.0532   95.4779   10.4595 C.3     1  UNL1        0.2373
     22 C          67.8612   94.9751    9.3001 C.3     1  UNL1        0.1894
     23 C          68.4994   92.4608    9.1559 C.3     1  UNL1        0.1743
     24 O          68.8601   93.8747    9.5032 O.3     1  UNL1       -0.3471
     25 O          63.0615   85.3616    9.3923 O.3     1  UNL1       -0.4747
     26 C          63.0961   84.5766   10.6701 C.3     1  UNL1        0.2010
     27 C          62.4148   85.1087   11.8959 C.3     1  UNL1        0.0635
     28 C          62.4494   84.3237   13.1736 C.3     1  UNL1        0.0725
     29 N          63.1653   83.0067   13.2255 N.3     1  UNL1       -0.2950
     30 C          63.8466   82.4745   11.9997 C.3     1  UNL1        0.1081
     31 C          63.8120   83.2595   10.7219 C.3     1  UNL1        0.2161
     32 F          64.4933   82.7273    9.4961 F       1  UNL1       -0.2319
     33 H          62.4770   82.3083   13.5065 H       1  UNL1        0.1233
@<TRIPOS>BOND
     1    23    24    1
     2    24    22    1
     3    22    21    1
     4    21    20    1
     5    20    11    1
     6    11    12   ar
     7    12    13   ar
     8    13    14   ar
     9    14    15   ar
    10    15     1    1
    11     1     2   ar
    12     2     3   ar
    13     3     4   ar
    14     4     5   ar
    15     5     6   ar
    16     6     7   ar
    17     7     8   ar
    18     8    25    1
    19    26    25    1
    20    26    27    1
    21    27    28    1
    22    28    29    1
    23    29    30    1
    24    30    31    1
    25    31    32    1
    26     8     9   ar
    27     9    10   ar
    28    15    16   ar
    29    16    17   ar
    30    17    18   ar
    31    18    19   ar
    32    19    11   ar
    33    18    14   ar
    34    10     1   ar
    35     9     4   ar
    36    31    26    1
    37    29    33    1
@<TRIPOS>MOLECULE
*****
 33 37 0 0 0
SMALL
GASTEIGER

@<TRIPOS>ATOM
      1 C          63.8405   89.9119   13.3398 C.ar    1  UNL1        0.0990
      2 C          63.3241   90.0059   14.7449 C.ar    1  UNL1        0.0207
      3 C          64.0319   90.8678   15.7480 C.ar    1  UNL1        0.0032
      4 C          65.2561   91.6357   15.3458 C.ar    1  UNL1        0.0207
      5 C          65.9639   92.4976   16.3490 C.ar    1  UNL1        0.0017
      6 C          67.1881   93.2655   15.9468 C.ar    1  UNL1        0.0032
      7 C          67.7044   93.1715   14.5416 C.ar    1  UNL1        0.0385
      8 C          66.9966   92.3097   13.5386 C.ar    1  UNL1        0.1559
      9 C          65.7724   91.5417   13.9407 C.ar    1  UNL1        0.1151
     10 N          65.0646   90.6799   12.9377 N.ar    1  UNL1       -0.2408
     11 C          62.6329   84.6280   11.8366 C.ar    1  UNL1        0.1432
     12 C          63.4454   85.0687   13.0180 C.ar    1  UNL1        0.0560
     13 C          63.6696   86.5301   13.2709 C.ar    1  UNL1        0.0846
     14 N          63.0814   87.5509   12.3425 N.ar    1  UNL1       -0.2872
     15 C          63.1326   89.0500   12.3367 C.ar    1  UNL1        0.1021
     16 C          62.3518   89.5359   11.1517 C.ar    1  UNL1        0.1195
     17 N          61.8180   88.3371   10.4251 N.ar    1  UNL1       -0.2247
     18 C          62.2689   87.1102   11.1611 C.ar    1  UNL1        0.1509
     19 C          62.0447   85.6489   10.9082 C.ar    1  UNL1        0.0743
     20 O          62.4087   83.1667   11.5837 O.3     1  UNL1       -0.4726
     21 C          63.5217   82.1869   11.8100 C.3     1  UNL1        0.2373
     22 C          63.5931   81.4167   13.0952 C.3     1  UNL1        0.1894
     23 C          61.2157   80.9619   14.0390 C.3     1  UNL1        0.1743
     24 O          62.5003   80.4540   13.4544 O.3     1  UNL1       -0.3471
     25 O          67.5130   92.2157   12.1334 O.3     1  UNL1       -0.4747
     26 C          67.1060   93.2388   11.1148 C.3     1  UNL1        0.2010
     27 C          66.0791   94.2756   11.4620 C.3     1  UNL1        0.0635
     28 C          65.6721   95.2987   10.4434 C.3     1  UNL1        0.0725
     29 N          66.2920   95.2851    9.0776 N.3     1  UNL1       -0.2950
     30 C          67.3189   94.2483    8.7303 C.3     1  UNL1        0.1081
     31 C          67.7259   93.2251    9.7489 C.3     1  UNL1        0.2161
     32 F          68.7528   92.1884    9.4017 F       1  UNL1       -0.2319
     33 H          66.7354   96.1942    8.9464 H       1  UNL1        0.1233
@<TRIPOS>BOND
     1    23    24    1
     2    24    22    1
     3    22    21    1
     4    21    20    1
     5    20    11    1
     6    11    12   ar
     7    12    13   ar
     8    13    14   ar
     9    14    15   ar
    10    15     1    1
    11     1     2   ar
    12     2     3   ar
    13     3     4   ar
    14     4     5   ar
    15     5     6   ar
    16     6     7   ar
    17     7     8   ar
    18     8    25    1
    19    26    25    1
    20    26    27    1
    21    27    28    1
    22    28    29    1
    23    29    30    1
    24    30    31    1
    25    31    32    1
    26     8     9   ar
    27     9    10   ar
    28    15    16   ar
    29    16    17   ar
    30    17    18   ar
    31    18    19   ar
    32    19    11   ar
    33    18    14   ar
    34    10     1   ar
    35     9     4   ar
    36    31    26    1
    37    29    33    1
@<TRIPOS>MOLECULE
*****
 33 37 0 0 0
SMALL
GASTEIGER

@<TRIPOS>ATOM
      1 C          63.6134   89.6499   13.9299 C.ar    1  UNL1        0.0990
      2 C          63.2721   90.3516   15.2109 C.ar    1  UNL1        0.0207
      3 C          63.0829   89.5613   16.4717 C.ar    1  UNL1        0.0032
      4 C          63.2351   88.0692   16.4514 C.ar    1  UNL1        0.0207
      5 C          63.0459   87.2788   17.7122 C.ar    1  UNL1        0.0017
      6 C          63.1980   85.7867   17.6919 C.ar    1  UNL1        0.0032
      7 C          63.5393   85.0849   16.4108 C.ar    1  UNL1        0.0385
      8 C          63.7285   85.8753   15.1501 C.ar    1  UNL1        0.1559
      9 C          63.5764   87.3674   15.1704 C.ar    1  UNL1        0.1151
     10 N          63.7655   88.1578   13.9097 N.ar    1  UNL1       -0.2408
     11 C          66.1806   94.0836   11.6085 C.ar    1  UNL1        0.1432
     12 C          66.2864   93.6203   13.0312 C.ar    1  UNL1        0.0560
     13 C          65.5270   92.4084   13.4838 C.ar    1  UNL1        0.0846
     14 N          64.6619   91.6599   12.5136 N.ar    1  UNL1       -0.2872
     15 C          63.8026   90.4403   12.6691 C.ar    1  UNL1        0.1021
     16 C          63.1657   90.1498   11.3425 C.ar    1  UNL1        0.1195
     17 N          63.6314   91.1899   10.3671 N.ar    1  UNL1       -0.2247
     18 C          64.5561   92.1232   11.0909 C.ar    1  UNL1        0.1509
     19 C          65.3154   93.3350   10.6384 C.ar    1  UNL1        0.0743
     20 O          66.9399   95.2953   11.1559 O.3     1  UNL1       -0.4726
     21 C          67.0796   95.5893    9.6916 C.3     1  UNL1        0.2373
     22 C          67.9163   94.6966    8.8239 C.3     1  UNL1        0.1894
     23 C          68.7108   92.2836    9.3679 C.3     1  UNL1        0.1743
     24 O          68.9155   93.7674    9.4469 O.3     1  UNL1       -0.3471
     25 O          64.0698   85.1735   13.8691 O.3     1  UNL1       -0.4747
     26 C          63.4629   83.8367   13.5616 C.3     1  UNL1        0.2010
     27 C          62.4617   83.2334   14.5015 C.3     1  UNL1        0.0635
     28 C          61.8549   81.8965   14.1940 C.3     1  UNL1        0.0725
     29 N          62.2493   81.1630   12.9465 N.3     1  UNL1       -0.2950
     30 C          63.2506   81.7662   12.0065 C.3     1  UNL1        0.1081
     31 C          63.8574   83.1031   12.3140 C.3     1  UNL1        0.2161
     32 F          64.8586   83.7064   11.3741 F       1  UNL1       -0.2319
     33 H          61.3946   81.0135   12.4101 H       1  UNL1        0.1233
@<TRIPOS>BOND
     1    23    24    1
     2    24    22    1
     3    22    21    1
     4    21    20    1
     5    20    11    1
     6    11    12   ar
     7    12    13   ar
     8    13    14   ar
     9    14    15   ar
    10    15     1    1
    11     1     2   ar
    12     2     3   ar
    13     3     4   ar
    14     4     5   ar
    15     5     6   ar
    16     6     7   ar
    17     7     8   ar
    18     8    25    1
    19    26    25    1
    20    26    27    1
    21    27    28    1
    22    28    29    1
    23    29    30    1
    24    30    31    1
    25    31    32    1
    26     8     9   ar
    27     9    10   ar
    28    15    16   ar
    29    16    17   ar
    30    17    18   ar
    31    18    19   ar
    32    19    11   ar
    33    18    14   ar
    34    10     1   ar
    35     9     4   ar
    36    31    26    1
    37    29    33    1
@<TRIPOS>MOLECULE
*****
 33 37 0 0 0
SMALL
GASTEIGER

@<TRIPOS>ATOM
      1 C          63.1926   84.9587   14.8968 C.ar    1  UNL1        0.0990
      2 C          63.2505   83.5655   15.4496 C.ar    1  UNL1        0.0207
      3 C          63.3364   82.3923   14.5189 C.ar    1  UNL1        0.0032
      4 C          63.3645   82.6123   13.0354 C.ar    1  UNL1        0.0207
      5 C          63.4504   81.4390   12.1047 C.ar    1  UNL1        0.0017
      6 C          63.4785   81.6590   10.6212 C.ar    1  UNL1        0.0032
      7 C          63.4207   83.0523   10.0684 C.ar    1  UNL1        0.0385
      8 C          63.3348   84.2255   10.9991 C.ar    1  UNL1        0.1559
      9 C          63.3067   84.0055   12.4826 C.ar    1  UNL1        0.1151
     10 N          63.2207   85.1787   13.4133 N.ar    1  UNL1       -0.2408
     11 C          64.1277   90.4766   15.4589 C.ar    1  UNL1        0.1432
     12 C          64.3819   89.6357   14.2431 C.ar    1  UNL1        0.0560
     13 C          64.0721   88.1683   14.2678 C.ar    1  UNL1        0.0846
     14 N          63.5080   87.5417   15.5084 N.ar    1  UNL1       -0.2872
     15 C          63.1067   86.1320   15.8275 C.ar    1  UNL1        0.1021
     16 C          62.6044   86.1016   17.2405 C.ar    1  UNL1        0.1195
     17 N          62.6952   87.4924   17.7948 N.ar    1  UNL1       -0.2247
     18 C          63.2537   88.3825   16.7243 C.ar    1  UNL1        0.1509
     19 C          63.5635   89.8499   16.6995 C.ar    1  UNL1        0.0743
     20 O          64.4375   91.9439   15.4342 O.3     1  UNL1       -0.4726
     21 C          65.8583   92.4125   15.5437 C.3     1  UNL1        0.2373
     22 C          66.6028   92.8432   14.3149 C.3     1  UNL1        0.1894
     23 C          68.7328   93.4090   15.6906 C.3     1  UNL1        0.1743
     24 O          68.0824   93.0815   14.3793 O.3     1  UNL1       -0.3471
     25 O          63.2769   85.6186   10.4462 O.3     1  UNL1       -0.4747
     26 C          62.0040   86.1338    9.8426 C.3     1  UNL1        0.2010
     27 C          61.0726   86.9767   10.6623 C.3     1  UNL1        0.0635
     28 C          59.7997   87.4918   10.0587 C.3     1  UNL1        0.0725
     29 N          59.4582   87.1641    8.6354 N.3     1  UNL1       -0.2950
     30 C          60.3896   86.3211    7.8156 C.3     1  UNL1        0.1081
     31 C          61.6625   85.8059    8.4192 C.3     1  UNL1        0.2161
     32 F          62.5939   84.9630    7.5995 F       1  UNL1       -0.2319
     33 H          59.3564   88.0526    8.1449 H       1  UNL1        0.1233
@<TRIPOS>BOND
     1    23    24    1
     2    24    22    1
     3    22    21    1
     4    21    20    1
     5    20    11    1
     6    11    12   ar
     7    12    13   ar
     8    13    14   ar
     9    14    15   ar
    10    15     1    1
    11     1     2   ar
    12     2     3   ar
    13     3     4   ar
    14     4     5   ar
    15     5     6   ar
    16     6     7   ar
    17     7     8   ar
    18     8    25    1
    19    26    25    1
    20    26    27    1
    21    27    28    1
    22    28    29    1
    23    29    30    1
    24    30    31    1
    25    31    32    1
    26     8     9   ar
    27     9    10   ar
    28    15    16   ar
    29    16    17   ar
    30    17    18   ar
    31    18    19   ar
    32    19    11   ar
    33    18    14   ar
    34    10     1   ar
    35     9     4   ar
    36    31    26    1
    37    29    33    1
@<TRIPOS>MOLECULE
*****
 33 37 0 0 0
SMALL
GASTEIGER

@<TRIPOS>ATOM
      1 C          64.3106   88.9018   14.1452 C.ar    1  UNL1        0.0990
      2 C          64.6837   87.7844   15.0738 C.ar    1  UNL1        0.0207
      3 C          64.3074   86.3720   14.7368 C.ar    1  UNL1        0.0032
      4 C          63.5581   86.0770   13.4713 C.ar    1  UNL1        0.0207
      5 C          63.1818   84.6646   13.1344 C.ar    1  UNL1        0.0017
      6 C          62.4325   84.3696   11.8688 C.ar    1  UNL1        0.0032
      7 C          62.0595   85.4871   10.9403 C.ar    1  UNL1        0.0385
      8 C          62.4357   86.8994   11.2772 C.ar    1  UNL1        0.1559
      9 C          63.1851   87.1944   12.5427 C.ar    1  UNL1        0.1151
     10 N          63.5613   88.6068   12.8797 N.ar    1  UNL1       -0.2408
     11 C          66.2348   93.7745   12.0980 C.ar    1  UNL1        0.1432
     12 C          65.9874   92.5076   11.3340 C.ar    1  UNL1        0.0560
     13 C          65.4686   91.2926   12.0443 C.ar    1  UNL1        0.0846
     14 N          65.1973   91.3444   13.5186 N.ar    1  UNL1       -0.2872
     15 C          64.6869   90.3142   14.4821 C.ar    1  UNL1        0.1021
     16 C          64.6190   90.9444   15.8416 C.ar    1  UNL1        0.1195
     17 N          65.0873   92.3641   15.7184 N.ar    1  UNL1       -0.2247
     18 C          65.4447   92.6113   14.2826 C.ar    1  UNL1        0.1509
     19 C          65.9634   93.8263   13.5724 C.ar    1  UNL1        0.0743
     20 O          66.7536   94.9895   11.3877 O.3     1  UNL1       -0.4726
     21 C          66.6920   95.0667    9.8909 C.3     1  UNL1        0.2373
     22 C          67.9124   94.7629    9.0734 C.3     1  UNL1        0.1894
     23 C          68.7805   92.3144    9.0498 C.3     1  UNL1        0.1743
     24 O          68.8904   93.7269    9.5423 O.3     1  UNL1       -0.3471
     25 O          62.0627   88.0168   10.3486 O.3     1  UNL1       -0.4747
     26 C          61.0069   87.8037    9.3048 C.3     1  UNL1        0.2010
     27 C          60.8055   86.4420    8.7088 C.3     1  UNL1        0.0635
     28 C          59.7496   86.2288    7.6649 C.3     1  UNL1        0.0725
     29 N          58.8951   87.3774    7.2170 N.3     1  UNL1       -0.2950
     30 C          59.0965   88.7391    7.8130 C.3     1  UNL1        0.1081
     31 C          60.1523   88.9523    8.8569 C.3     1  UNL1        0.2161
     32 F          60.3537   90.3139    9.4529 F       1  UNL1       -0.2319
     33 H          57.9274   87.1145    7.4033 H       1  UNL1        0.1233
@<TRIPOS>BOND
     1    23    24    1
     2    24    22    1
     3    22    21    1
     4    21    20    1
     5    20    11    1
     6    11    12   ar
     7    12    13   ar
     8    13    14   ar
     9    14    15   ar
    10    15     1    1
    11     1     2   ar
    12     2     3   ar
    13     3     4   ar
    14     4     5   ar
    15     5     6   ar
    16     6     7   ar
    17     7     8   ar
    18     8    25    1
    19    26    25    1
    20    26    27    1
    21    27    28    1
    22    28    29    1
    23    29    30    1
    24    30    31    1
    25    31    32    1
    26     8     9   ar
    27     9    10   ar
    28    15    16   ar
    29    16    17   ar
    30    17    18   ar
    31    18    19   ar
    32    19    11   ar
    33    18    14   ar
    34    10     1   ar
    35     9     4   ar
    36    31    26    1
    37    29    33    1
@<TRIPOS>MOLECULE
*****
 33 37 0 0 0
SMALL
GASTEIGER

@<TRIPOS>ATOM
      1 C          64.2022   89.7585   14.7501 C.ar    1  UNL1        0.0990
      2 C          65.0550   90.8306   15.3610 C.ar    1  UNL1        0.0207
      3 C          65.5450   91.9704   14.5180 C.ar    1  UNL1        0.0032
      4 C          65.1821   92.0382   13.0641 C.ar    1  UNL1        0.0207
      5 C          65.6722   93.1781   12.2211 C.ar    1  UNL1        0.0017
      6 C          65.3093   93.2458   10.7672 C.ar    1  UNL1        0.0032
      7 C          64.4564   92.1737   10.1564 C.ar    1  UNL1        0.0385
      8 C          63.9664   91.0339   10.9994 C.ar    1  UNL1        0.1559
      9 C          64.3293   90.9661   12.4532 C.ar    1  UNL1        0.1151
     10 N          63.8393   89.8263   13.2962 N.ar    1  UNL1       -0.2408
     11 C          63.6901   84.1680   15.0980 C.ar    1  UNL1        0.1432
     12 C          64.2992   84.9519   13.9735 C.ar    1  UNL1        0.0560
     13 C          64.3535   86.4491   14.0461 C.ar    1  UNL1        0.0846
     14 N          63.7987   87.1625   15.2433 N.ar    1  UNL1       -0.2872
     15 C          63.7121   88.6186   15.5931 C.ar    1  UNL1        0.1021
     16 C          63.0495   88.7347   16.9337 C.ar    1  UNL1        0.1195
     17 N          62.7266   87.3504   17.4126 N.ar    1  UNL1       -0.2247
     18 C          63.1896   86.3787   16.3678 C.ar    1  UNL1        0.1509
     19 C          63.1353   84.8815   16.2952 C.ar    1  UNL1        0.0743
     20 O          63.6358   82.6708   15.0253 O.3     1  UNL1       -0.4726
     21 C          62.6493   81.9993   14.1164 C.3     1  UNL1        0.2373
     22 C          63.0687   81.5674   12.7425 C.3     1  UNL1        0.1894
     23 C          64.0258   82.5388   10.5312 C.3     1  UNL1        0.1743
     24 O          62.9650   82.5236   11.5915 O.3     1  UNL1       -0.3471
     25 O          63.1135   89.9618   10.3885 O.3     1  UNL1       -0.4747
     26 C          61.7103   89.7515   10.8750 C.3     1  UNL1        0.2010
     27 C          60.7950   90.9261   11.0551 C.3     1  UNL1        0.0635
     28 C          59.3918   90.7159   11.5416 C.3     1  UNL1        0.0725
     29 N          58.9038   89.3310   11.8480 N.3     1  UNL1       -0.2950
     30 C          59.8191   88.1563   11.6679 C.3     1  UNL1        0.1081
     31 C          61.2223   88.3665   11.1814 C.3     1  UNL1        0.2161
     32 F          62.1376   87.1919   11.0013 F       1  UNL1       -0.2319
     33 H          58.0925   89.1661   11.2522 H       1  UNL1        0.1233
@<TRIPOS>BOND
     1    23    24    1
     2    24    22    1
     3    22    21    1
     4    21    20    1
     5    20    11    1
     6    11    12   ar
     7    12    13   ar
     8    13    14   ar
     9    14    15   ar
    10    15     1    1
    11     1     2   ar
    12     2     3   ar
    13     3     4   ar
    14     4     5   ar
    15     5     6   ar
    16     6     7   ar
    17     7     8   ar
    18     8    25    1
    19    26    25    1
    20    26    27    1
    21    27    28    1
    22    28    29    1
    23    29    30    1
    24    30    31    1
    25    31    32    1
    26     8     9   ar
    27     9    10   ar
    28    15    16   ar
    29    16    17   ar
    30    17    18   ar
    31    18    19   ar
    32    19    11   ar
    33    18    14   ar
    34    10     1   ar
    35     9     4   ar
    36    31    26    1
    37    29    33    1
@<TRIPOS>MOLECULE
*****
 33 37 0 0 0
SMALL
GASTEIGER

@<TRIPOS>ATOM
      1 C          62.5619   89.2769   12.7575 C.ar    1  UNL1        0.0990
      2 C          61.6316   90.0597   11.8790 C.ar    1  UNL1        0.0207
      3 C          61.0827   89.4406   10.6279 C.ar    1  UNL1        0.0032
      4 C          61.4642   88.0386   10.2552 C.ar    1  UNL1        0.0207
      5 C          60.9153   87.4195    9.0040 C.ar    1  UNL1        0.0017
      6 C          61.2967   86.0175    8.6313 C.ar    1  UNL1        0.0032
      7 C          62.2270   85.2346    9.5098 C.ar    1  UNL1        0.0385
      8 C          62.7758   85.8537   10.7609 C.ar    1  UNL1        0.1559
      9 C          62.3944   87.2557   11.1336 C.ar    1  UNL1        0.1151
     10 N          62.9433   87.8749   12.3847 N.ar    1  UNL1       -0.2408
     11 C          66.2986   92.9295   14.8389 C.ar    1  UNL1        0.1432
     12 C          66.0715   92.5924   13.3950 C.ar    1  UNL1        0.0560
     13 C          65.0250   91.5871   13.0152 C.ar    1  UNL1        0.0846
     14 N          64.2055   90.9190   14.0792 N.ar    1  UNL1       -0.2872
     15 C          63.1108   89.8960   14.0087 C.ar    1  UNL1        0.1021
     16 C          62.6613   89.6008   15.4090 C.ar    1  UNL1        0.1195
     17 N          63.4782   90.4414   16.3449 N.ar    1  UNL1       -0.2247
     18 C          64.4327   91.2561   15.5231 C.ar    1  UNL1        0.1509
     19 C          65.4792   92.2613   15.9029 C.ar    1  UNL1        0.0743
     20 O          67.3451   93.9346   15.2187 O.3     1  UNL1       -0.4726
     21 C          68.6148   93.4830   15.8777 C.3     1  UNL1        0.2373
     22 C          69.6031   92.6537   15.1125 C.3     1  UNL1        0.1894
     23 C          69.3105   91.3114   12.9075 C.3     1  UNL1        0.1743
     24 O          69.5471   92.6131   13.6141 O.3     1  UNL1       -0.3471
     25 O          63.7061   85.0709   11.6393 O.3     1  UNL1       -0.4747
     26 C          63.1562   84.0601   12.6016 C.3     1  UNL1        0.2010
     27 C          62.6743   82.7313   12.0996 C.3     1  UNL1        0.0635
     28 C          62.1244   81.7206   13.0619 C.3     1  UNL1        0.0725
     29 N          62.0563   82.0387   14.5262 N.3     1  UNL1       -0.2950
     30 C          62.5382   83.3675   15.0283 C.3     1  UNL1        0.1081
     31 C          63.0882   84.3783   14.0660 C.3     1  UNL1        0.2161
     32 F          63.5700   85.7071   14.5680 F       1  UNL1       -0.2319
     33 H          62.6038   81.3257   15.0081 H       1  UNL1        0.1233
@<TRIPOS>BOND
     1    23    24    1
     2    24    22    1
     3    22    21    1
     4    21    20    1
     5    20    11    1
     6    11    12   ar
     7    12    13   ar
     8    13    14   ar
     9    14    15   ar
    10    15     1    1
    11     1     2   ar
    12     2     3   ar
    13     3     4   ar
    14     4     5   ar
    15     5     6   ar
    16     6     7   ar
    17     7     8   ar
    18     8    25    1
    19    26    25    1
    20    26    27    1
    21    27    28    1
    22    28    29    1
    23    29    30    1
    24    30    31    1
    25    31    32    1
    26     8     9   ar
    27     9    10   ar
    28    15    16   ar
    29    16    17   ar
    30    17    18   ar
    31    18    19   ar
    32    19    11   ar
    33    18    14   ar
    34    10     1   ar
    35     9     4   ar
    36    31    26    1
    37    29    33    1
@<TRIPOS>MOLECULE
*****
 33 37 0 0 0
SMALL
GASTEIGER

@<TRIPOS>ATOM
      1 C          63.3214   88.2464   12.6897 C.ar    1  UNL1        0.0990
      2 C          64.0271   88.7893   13.8968 C.ar    1  UNL1        0.0207
      3 C          64.5266   87.8537   14.9575 C.ar    1  UNL1        0.0032
      4 C          64.3204   86.3752   14.8110 C.ar    1  UNL1        0.0207
      5 C          64.8199   85.4395   15.8718 C.ar    1  UNL1        0.0017
      6 C          64.6136   83.9610   15.7254 C.ar    1  UNL1        0.0032
      7 C          63.9079   83.4181   14.5182 C.ar    1  UNL1        0.0385
      8 C          63.4084   84.3538   13.4575 C.ar    1  UNL1        0.1559
      9 C          63.6147   85.8323   13.6039 C.ar    1  UNL1        0.1151
     10 N          63.1152   86.7679   12.5432 N.ar    1  UNL1       -0.2408
     11 C          59.8697   88.8007    8.2834 C.ar    1  UNL1        0.1432
     12 C          60.0691   87.5768    9.1274 C.ar    1  UNL1        0.0560
     13 C          61.0374   87.6051   10.2726 C.ar    1  UNL1        0.0846
     14 N          61.8064   88.8572   10.5738 N.ar    1  UNL1       -0.2872
     15 C          62.8219   89.1821   11.6289 C.ar    1  UNL1        0.1021
     16 C          63.2502   90.6067   11.4370 C.ar    1  UNL1        0.1195
     17 N          62.4994   91.1624   10.2633 N.ar    1  UNL1       -0.2247
     18 C          61.6070   90.0811    9.7298 C.ar    1  UNL1        0.1509
     19 C          60.6388   90.0529    8.5847 C.ar    1  UNL1        0.0743
     20 O          58.9015   88.7725    7.1382 O.3     1  UNL1       -0.4726
     21 C          59.0839   89.7063    5.9785 C.3     1  UNL1        0.2373
     22 C          58.0768   90.7877    5.7207 C.3     1  UNL1        0.1894
     23 C          59.5381   92.3163    4.2115 C.3     1  UNL1        0.1743
     24 O          58.2182   91.6731    4.5182 O.3     1  UNL1       -0.3471
     25 O          62.7027   83.8109   12.2504 O.3     1  UNL1       -0.4747
     26 C          62.7236   82.3377   11.9688 C.3     1  UNL1        0.2010
     27 C          62.2252   81.3697   13.0006 C.3     1  UNL1        0.0635
     28 C          62.2461   79.8965   12.7190 C.3     1  UNL1        0.0725
     29 N          62.7653   79.3913   11.4055 N.3     1  UNL1       -0.2950
     30 C          63.2637   80.3593   10.3736 C.3     1  UNL1        0.1081
     31 C          63.2428   81.8325   10.6552 C.3     1  UNL1        0.2161
     32 F          63.7411   82.8004    9.6234 F       1  UNL1       -0.2319
     33 H          62.0073   78.8637   10.9726 H       1  UNL1        0.1233
@<TRIPOS>BOND
     1    23    24    1
     2    24    22    1
     3    22    21    1
     4    21    20    1
     5    20    11    1
     6    11    12   ar
     7    12    13   ar
     8    13    14   ar
     9    14    15   ar
    10    15     1    1
    11     1     2   ar
    12     2     3   ar
    13     3     4   ar
    14     4     5   ar
    15     5     6   ar
    16     6     7   ar
    17     7     8   ar
    18     8    25    1
    19    26    25    1
    20    26    27    1
    21    27    28    1
    22    28    29    1
    23    29    30    1
    24    30    31    1
    25    31    32    1
    26     8     9   ar
    27     9    10   ar
    28    15    16   ar
    29    16    17   ar
    30    17    18   ar
    31    18    19   ar
    32    19    11   ar
    33    18    14   ar
    34    10     1   ar
    35     9     4   ar
    36    31    26    1
    37    29    33    1
