@<TRIPOS>MOLECULE
*****
 27 29 0 0 0
SMALL
GASTEIGER

@<TRIPOS>ATOM
      1 C          64.8378   91.8619   12.1806 C.ar    1  UNL1       -0.0059
      2 C          64.4459   91.0850   13.4024 C.ar    1  UNL1        0.0002
      3 C          63.3254   90.0904   13.3312 C.ar    1  UNL1        0.0366
      4 C          62.5967   89.8727   12.0383 C.ar    1  UNL1        0.1390
      5 C          62.9886   90.6496   10.8165 C.ar    1  UNL1        0.0366
      6 C          64.1092   91.6442   10.8877 C.ar    1  UNL1        0.0002
      7 C          65.9584   92.8565   12.2517 C.3     1  UNL1        0.0995
      8 C          66.8683   94.3506   10.2307 C.3     1  UNL1        0.1376
      9 C          67.8720   94.1529    9.1336 C.3     1  UNL1        0.0620
     10 C          68.4501   92.7761    9.2768 C.3     1  UNL1        0.1787
     11 F          69.4917   92.1607    8.3901 F       1  UNL1       -0.2357
     12 C          67.8036   92.1230   10.4622 C.3     1  UNL1        0.1084
     13 N          66.8260   93.0960   11.0518 N.3     1  UNL1       -0.2603
     14 N          65.1501   96.1060    9.3841 N.am    1  UNL1       -0.3277
     15 C          66.0505   95.5859   10.4653 C.2     1  UNL1        0.2340
     16 O          66.1330   96.3012   11.7812 O.2     1  UNL1       -0.2739
     17 H          64.6134   96.9168    9.5382 H       1  UNL1        0.1450
     18 H          65.0959   95.6366    8.5205 H       1  UNL1        0.1450
     19 O          61.4761   88.8781   11.9671 O.3     1  UNL1       -0.4706
     20 C          60.5728   88.8503   10.7700 C.3     1  UNL1        0.2321
     21 C          60.7334   87.7776    9.7338 C.ar    1  UNL1        0.0234
     22 C          59.5872   87.4290    8.8313 C.ar    1  UNL1       -0.0005
     23 C          59.7479   86.3563    7.7952 C.ar    1  UNL1        0.0021
     24 C          61.0548   85.6323    7.6617 C.ar    1  UNL1        0.0296
     25 C          62.2010   85.9809    8.5642 C.ar    1  UNL1        0.1399
     26 F          63.5079   85.2569    8.4307 F       1  UNL1       -0.2042
     27 C          62.0403   87.0536    9.6003 C.ar    1  UNL1        0.0289
@<TRIPOS>BOND
     1    14    15   am
     2    15    16    2
     3     8    15    1
     4     8     9    1
     5     9    10    1
     6    10    11    1
     7    10    12    1
     8    12    13    1
     9    13     7    1
    10     7     1    1
    11     1     2   ar
    12     2     3   ar
    13     3     4   ar
    14     4    19    1
    15    19    20    1
    16    20    21    1
    17    21    22   ar
    18    22    23   ar
    19    23    24   ar
    20    24    25   ar
    21    25    26    1
    22    25    27   ar
    23     4     5   ar
    24     5     6   ar
    25    13     8    1
    26     6     1   ar
    27    27    21   ar
    28    14    17    1
    29    14    18    1
@<TRIPOS>MOLECULE
*****
 27 29 0 0 0
SMALL
GASTEIGER

@<TRIPOS>ATOM
      1 C          63.7711   89.2012   15.6101 C.ar    1  UNL1       -0.0059
      2 C          63.0709   88.5813   16.7829 C.ar    1  UNL1        0.0002
      3 C          63.0285   87.0890   16.9279 C.ar    1  UNL1        0.0366
      4 C          63.6862   86.2166   15.9001 C.ar    1  UNL1        0.1390
      5 C          64.3864   86.8365   14.7274 C.ar    1  UNL1        0.0366
      6 C          64.4288   88.3288   14.5824 C.ar    1  UNL1        0.0002
      7 C          63.8136   90.6936   15.4651 C.3     1  UNL1        0.0995
      8 C          65.7687   92.0315   14.2272 C.3     1  UNL1        0.1376
      9 C          66.0178   92.4835   12.8188 C.3     1  UNL1        0.0620
     10 C          64.8559   92.0431   11.9783 C.3     1  UNL1        0.1787
     11 F          64.6903   92.2845   10.5072 F       1  UNL1       -0.2357
     12 C          63.8888   91.3191   12.8674 C.3     1  UNL1        0.1084
     13 N          64.4529   91.3119   14.2573 N.3     1  UNL1       -0.2603
     14 N          66.1927   93.0490   16.5799 N.am    1  UNL1       -0.3277
     15 C          66.6760   92.2593   15.3997 C.2     1  UNL1        0.2340
     16 O          68.0668   91.6974   15.3921 O.2     1  UNL1       -0.2739
     17 H          66.7883   93.1984   17.3495 H       1  UNL1        0.1450
     18 H          65.2800   93.4178   16.5850 H       1  UNL1        0.1450
     19 O          63.6437   84.7241   16.0452 O.3     1  UNL1       -0.4706
     20 C          62.4902   83.9484   15.4817 C.3     1  UNL1        0.2321
     21 C          62.6796   83.1091   14.2529 C.ar    1  UNL1        0.0234
     22 C          62.1590   81.7028   14.2176 C.ar    1  UNL1       -0.0005
     23 C          62.3484   80.8637   12.9888 C.ar    1  UNL1        0.0021
     24 C          63.0584   81.4308   11.7954 C.ar    1  UNL1        0.0296
     25 C          63.5790   82.8371   11.8307 C.ar    1  UNL1        0.1399
     26 F          64.2890   83.4042   10.6373 F       1  UNL1       -0.2042
     27 C          63.3896   83.6762   13.0594 C.ar    1  UNL1        0.0289
@<TRIPOS>BOND
     1    14    15   am
     2    15    16    2
     3     8    15    1
     4     8     9    1
     5     9    10    1
     6    10    11    1
     7    10    12    1
     8    12    13    1
     9    13     7    1
    10     7     1    1
    11     1     2   ar
    12     2     3   ar
    13     3     4   ar
    14     4    19    1
    15    19    20    1
    16    20    21    1
    17    21    22   ar
    18    22    23   ar
    19    23    24   ar
    20    24    25   ar
    21    25    26    1
    22    25    27   ar
    23     4     5   ar
    24     5     6   ar
    25    13     8    1
    26     6     1   ar
    27    27    21   ar
    28    14    17    1
    29    14    18    1
@<TRIPOS>MOLECULE
*****
 27 29 0 0 0
SMALL
GASTEIGER

@<TRIPOS>ATOM
      1 C          62.9245   84.6884   10.5929 C.ar    1  UNL1       -0.0059
      2 C          61.9982   85.4792   11.4684 C.ar    1  UNL1        0.0002
      3 C          61.2976   86.6872   10.9209 C.ar    1  UNL1        0.0366
      4 C          61.5233   87.1045    9.4979 C.ar    1  UNL1        0.1390
      5 C          62.4496   86.3137    8.6224 C.ar    1  UNL1        0.0366
      6 C          63.1502   85.1057    9.1699 C.ar    1  UNL1        0.0002
      7 C          63.6251   83.4803   11.1404 C.3     1  UNL1        0.0995
      8 C          63.2227   83.1242   13.7588 C.3     1  UNL1        0.1376
      9 C          62.4808   82.1208   14.5910 C.3     1  UNL1        0.0620
     10 C          61.8497   81.1251   13.6634 C.3     1  UNL1        0.1787
     11 F          61.0135   79.9480   14.0700 F       1  UNL1       -0.2357
     12 C          62.2016   81.5132   12.2579 C.3     1  UNL1        0.1084
     13 N          63.0501   82.7488   12.3168 N.3     1  UNL1       -0.2603
     14 N          65.5002   84.2678   14.2642 N.am    1  UNL1       -0.3277
     15 C          64.0005   84.2972   14.2774 C.2     1  UNL1        0.2340
     16 O          63.2787   85.4997   14.8094 O.2     1  UNL1       -0.2739
     17 H          66.0107   85.0377   14.6046 H       1  UNL1        0.1450
     18 H          65.9740   83.4785   13.9151 H       1  UNL1        0.1450
     19 O          60.8227   88.3126    8.9504 O.3     1  UNL1       -0.4706
     20 C          60.5979   89.5100    9.8254 C.3     1  UNL1        0.2321
     21 C          61.7388   90.0944   10.6044 C.ar    1  UNL1        0.0234
     22 C          62.7759   90.9242    9.9074 C.ar    1  UNL1       -0.0005
     23 C          63.9167   91.5085   10.6864 C.ar    1  UNL1        0.0021
     24 C          64.0205   91.2631   12.1626 C.ar    1  UNL1        0.0296
     25 C          62.9834   90.4334   12.8597 C.ar    1  UNL1        0.1399
     26 F          63.0872   90.1880   14.3358 F       1  UNL1       -0.2042
     27 C          61.8426   89.8490   12.0806 C.ar    1  UNL1        0.0289
@<TRIPOS>BOND
     1    14    15   am
     2    15    16    2
     3     8    15    1
     4     8     9    1
     5     9    10    1
     6    10    11    1
     7    10    12    1
     8    12    13    1
     9    13     7    1
    10     7     1    1
    11     1     2   ar
    12     2     3   ar
    13     3     4   ar
    14     4    19    1
    15    19    20    1
    16    20    21    1
    17    21    22   ar
    18    22    23   ar
    19    23    24   ar
    20    24    25   ar
    21    25    26    1
    22    25    27   ar
    23     4     5   ar
    24     5     6   ar
    25    13     8    1
    26     6     1   ar
    27    27    21   ar
    28    14    17    1
    29    14    18    1
@<TRIPOS>MOLECULE
*****
 27 29 0 0 0
SMALL
GASTEIGER

@<TRIPOS>ATOM
      1 C          63.3814   90.6791   11.7642 C.ar    1  UNL1       -0.0059
      2 C          63.4676   89.4087   12.5570 C.ar    1  UNL1        0.0002
      3 C          62.8590   88.1471   12.0203 C.ar    1  UNL1        0.0366
      4 C          62.1642   88.1561   10.6909 C.ar    1  UNL1        0.1390
      5 C          62.0781   89.4265    9.8982 C.ar    1  UNL1        0.0366
      6 C          62.6867   90.6881   10.4349 C.ar    1  UNL1        0.0002
      7 C          63.9901   91.9408   12.3009 C.3     1  UNL1        0.0995
      8 C          66.6426   92.2479   12.1812 C.3     1  UNL1        0.1376
      9 C          67.7735   92.0908   13.1541 C.3     1  UNL1        0.0620
     10 C          67.1964   91.6611   14.4703 C.3     1  UNL1        0.1787
     11 F          67.9709   91.3879   15.7255 F       1  UNL1       -0.2357
     12 C          65.7089   91.5526   14.3109 C.3     1  UNL1        0.1084
     13 N          65.3666   91.9152   12.8962 N.3     1  UNL1       -0.2603
     14 N          65.8460   93.7084   10.1856 N.am    1  UNL1       -0.3277
     15 C          66.7661   92.6644   10.7455 C.2     1  UNL1        0.2340
     16 O          67.8098   92.0369    9.8697 O.2     1  UNL1       -0.2739
     17 H          65.9271   93.9817    9.2433 H       1  UNL1        0.1450
     18 H          65.1610   94.1202   10.7604 H       1  UNL1        0.1450
     19 O          61.5556   86.8944   10.1543 O.3     1  UNL1       -0.4706
     20 C          62.4312   85.8383    9.5478 C.3     1  UNL1        0.2321
     21 C          62.8927   84.6782   10.3793 C.ar    1  UNL1        0.0234
     22 C          63.8056   83.6464    9.7861 C.ar    1  UNL1       -0.0005
     23 C          64.2670   82.4864   10.6175 C.ar    1  UNL1        0.0021
     24 C          63.8155   82.3581   12.0422 C.ar    1  UNL1        0.0296
     25 C          62.9025   83.3899   12.6354 C.ar    1  UNL1        0.1399
     26 F          62.4510   83.2616   14.0601 F       1  UNL1       -0.2042
     27 C          62.4411   84.5499   11.8039 C.ar    1  UNL1        0.0289
@<TRIPOS>BOND
     1    14    15   am
     2    15    16    2
     3     8    15    1
     4     8     9    1
     5     9    10    1
     6    10    11    1
     7    10    12    1
     8    12    13    1
     9    13     7    1
    10     7     1    1
    11     1     2   ar
    12     2     3   ar
    13     3     4   ar
    14     4    19    1
    15    19    20    1
    16    20    21    1
    17    21    22   ar
    18    22    23   ar
    19    23    24   ar
    20    24    25   ar
    21    25    26    1
    22    25    27   ar
    23     4     5   ar
    24     5     6   ar
    25    13     8    1
    26     6     1   ar
    27    27    21   ar
    28    14    17    1
    29    14    18    1
@<TRIPOS>MOLECULE
*****
 27 29 0 0 0
SMALL
GASTEIGER

@<TRIPOS>ATOM
      1 C          63.1927   90.6060   11.8815 C.ar    1  UNL1       -0.0059
      2 C          63.3807   89.2645   12.5258 C.ar    1  UNL1        0.0002
      3 C          62.8397   88.0321   11.8637 C.ar    1  UNL1        0.0366
      4 C          62.1106   88.1412   10.5573 C.ar    1  UNL1        0.1390
      5 C          61.9226   89.4826    9.9130 C.ar    1  UNL1        0.0366
      6 C          62.4636   90.7150   10.5751 C.ar    1  UNL1        0.0002
      7 C          63.7337   91.8385   12.5436 C.3     1  UNL1        0.0995
      8 C          65.2046   91.5144   14.7518 C.3     1  UNL1        0.1376
      9 C          66.6714   91.5487   15.0637 C.3     1  UNL1        0.0620
     10 C          67.4096   91.8367   13.7900 C.3     1  UNL1        0.1787
     11 F          68.8971   91.9594   13.6414 F       1  UNL1       -0.2357
     12 C          66.3989   91.9802   12.6909 C.3     1  UNL1        0.1084
     13 N          65.0362   91.7811   13.2854 N.3     1  UNL1       -0.2603
     14 N          63.4131   89.9252   15.7594 N.am    1  UNL1       -0.3277
     15 C          64.1002   91.2583   15.7340 C.2     1  UNL1        0.2340
     16 O          63.6828   92.3354   16.6909 O.2     1  UNL1       -0.2739
     17 H          62.6882   89.7572   16.4040 H       1  UNL1        0.1450
     18 H          63.6870   89.2182   15.1313 H       1  UNL1        0.1450
     19 O          61.5696   86.9087    9.8952 O.3     1  UNL1       -0.4706
     20 C          62.5106   85.8758    9.3497 C.3     1  UNL1        0.2321
     21 C          62.9170   84.7081   10.1992 C.ar    1  UNL1        0.0234
     22 C          63.8434   83.6656    9.6473 C.ar    1  UNL1       -0.0005
     23 C          64.2497   82.4980   10.4967 C.ar    1  UNL1        0.0021
     24 C          63.7296   82.3730   11.8981 C.ar    1  UNL1        0.0296
     25 C          62.8031   83.4156   12.4500 C.ar    1  UNL1        0.1399
     26 F          62.2830   83.2906   13.8514 F       1  UNL1       -0.2042
     27 C          62.3968   84.5832   11.6005 C.ar    1  UNL1        0.0289
@<TRIPOS>BOND
     1    14    15   am
     2    15    16    2
     3     8    15    1
     4     8     9    1
     5     9    10    1
     6    10    11    1
     7    10    12    1
     8    12    13    1
     9    13     7    1
    10     7     1    1
    11     1     2   ar
    12     2     3   ar
    13     3     4   ar
    14     4    19    1
    15    19    20    1
    16    20    21    1
    17    21    22   ar
    18    22    23   ar
    19    23    24   ar
    20    24    25   ar
    21    25    26    1
    22    25    27   ar
    23     4     5   ar
    24     5     6   ar
    25    13     8    1
    26     6     1   ar
    27    27    21   ar
    28    14    17    1
    29    14    18    1
@<TRIPOS>MOLECULE
*****
 27 29 0 0 0
SMALL
GASTEIGER

@<TRIPOS>ATOM
      1 C          63.7795   85.4679   15.2585 C.ar    1  UNL1       -0.0059
      2 C          63.1362   85.8963   16.5440 C.ar    1  UNL1        0.0002
      3 C          63.0628   87.3523   16.8971 C.ar    1  UNL1        0.0366
      4 C          63.6326   88.3798   15.9647 C.ar    1  UNL1        0.1390
      5 C          64.2758   87.9514   14.6791 C.ar    1  UNL1        0.0366
      6 C          64.3493   86.4955   14.3260 C.ar    1  UNL1        0.0002
      7 C          63.8529   84.0119   14.9053 C.3     1  UNL1        0.0995
      8 C          63.0137   82.2671   13.0625 C.3     1  UNL1        0.1376
      9 C          62.9713   82.2461   11.5632 C.3     1  UNL1        0.0620
     10 C          63.5514   83.5366   11.0650 C.3     1  UNL1        0.1787
     11 F          63.7039   83.9380    9.6277 F       1  UNL1       -0.2357
     12 C          63.9523   84.3551   12.2563 C.3     1  UNL1        0.1084
     13 N          63.6199   83.5705   13.4908 N.3     1  UNL1       -0.2603
     14 N          61.1038   81.1510   14.4252 N.am    1  UNL1       -0.3277
     15 C          62.5339   81.1762   13.9734 C.2     1  UNL1        0.2340
     16 O          63.4843   80.1104   14.4325 O.2     1  UNL1       -0.2739
     17 H          60.7890   80.4350   15.0231 H       1  UNL1        0.1450
     18 H          60.4800   81.8505   14.1239 H       1  UNL1        0.1450
     19 O          63.5591   89.8359   16.3178 O.3     1  UNL1       -0.4706
     20 C          63.8472   90.8758   15.2759 C.3     1  UNL1        0.2321
     21 C          65.2177   91.4772   15.1753 C.ar    1  UNL1        0.0234
     22 C          65.7365   92.3503   16.2791 C.ar    1  UNL1       -0.0005
     23 C          67.1069   92.9517   16.1784 C.ar    1  UNL1        0.0021
     24 C          67.9586   92.6800   14.9739 C.ar    1  UNL1        0.0296
     25 C          67.4398   91.8069   13.8701 C.ar    1  UNL1        0.1399
     26 F          68.2914   91.5352   12.6656 F       1  UNL1       -0.2042
     27 C          66.0693   91.2055   13.9708 C.ar    1  UNL1        0.0289
@<TRIPOS>BOND
     1    14    15   am
     2    15    16    2
     3     8    15    1
     4     8     9    1
     5     9    10    1
     6    10    11    1
     7    10    12    1
     8    12    13    1
     9    13     7    1
    10     7     1    1
    11     1     2   ar
    12     2     3   ar
    13     3     4   ar
    14     4    19    1
    15    19    20    1
    16    20    21    1
    17    21    22   ar
    18    22    23   ar
    19    23    24   ar
    20    24    25   ar
    21    25    26    1
    22    25    27   ar
    23     4     5   ar
    24     5     6   ar
    25    13     8    1
    26     6     1   ar
    27    27    21   ar
    28    14    17    1
    29    14    18    1
@<TRIPOS>MOLECULE
*****
 27 29 0 0 0
SMALL
GASTEIGER

@<TRIPOS>ATOM
      1 C          63.8685   89.7401   13.3448 C.ar    1  UNL1       -0.0059
      2 C          64.4767   89.0897   14.5519 C.ar    1  UNL1        0.0002
      3 C          64.4337   87.5978   14.7015 C.ar    1  UNL1        0.0366
      4 C          63.7826   86.7564   13.6442 C.ar    1  UNL1        0.1390
      5 C          63.1744   87.4068   12.4371 C.ar    1  UNL1        0.0366
      6 C          63.2174   88.8987   12.2875 C.ar    1  UNL1        0.0002
      7 C          63.9114   91.2320   13.1951 C.3     1  UNL1        0.0995
      8 C          65.9092   93.0022   13.0526 C.3     1  UNL1        0.1376
      9 C          66.9198   93.5413   14.0211 C.3     1  UNL1        0.0620
     10 C          66.6854   92.8844   15.3492 C.3     1  UNL1        0.1787
     11 F          67.4690   93.1295   16.6045 F       1  UNL1       -0.2357
     12 C          65.5300   91.9394   15.2013 C.3     1  UNL1        0.1084
     13 N          65.0502   92.0122   13.7820 N.3     1  UNL1       -0.2603
     14 N          65.6742   94.8316   11.2227 N.am    1  UNL1       -0.3277
     15 C          65.7802   93.3858   11.6082 C.2     1  UNL1        0.2340
     16 O          65.7572   92.3237   10.5493 O.2     1  UNL1       -0.2739
     17 H          65.5896   95.0833   10.2746 H       1  UNL1        0.1450
     18 H          65.6894   95.5288   11.9176 H       1  UNL1        0.1450
     19 O          63.7396   85.2644   13.7939 O.3     1  UNL1       -0.4706
     20 C          62.4878   84.5121   13.4520 C.3     1  UNL1        0.2321
     21 C          62.5556   83.0470   13.1370 C.ar    1  UNL1        0.0234
     22 C          62.3567   82.0356   14.2267 C.ar    1  UNL1       -0.0005
     23 C          62.4245   80.5707   13.9116 C.ar    1  UNL1        0.0021
     24 C          62.6913   80.1172   12.5069 C.ar    1  UNL1        0.0296
     25 C          62.8902   81.1286   11.4173 C.ar    1  UNL1        0.1399
     26 F          63.1570   80.6751   10.0126 F       1  UNL1       -0.2042
     27 C          62.8224   82.5935   11.7323 C.ar    1  UNL1        0.0289
@<TRIPOS>BOND
     1    14    15   am
     2    15    16    2
     3     8    15    1
     4     8     9    1
     5     9    10    1
     6    10    11    1
     7    10    12    1
     8    12    13    1
     9    13     7    1
    10     7     1    1
    11     1     2   ar
    12     2     3   ar
    13     3     4   ar
    14     4    19    1
    15    19    20    1
    16    20    21    1
    17    21    22   ar
    18    22    23   ar
    19    23    24   ar
    20    24    25   ar
    21    25    26    1
    22    25    27   ar
    23     4     5   ar
    24     5     6   ar
    25    13     8    1
    26     6     1   ar
    27    27    21   ar
    28    14    17    1
    29    14    18    1
@<TRIPOS>MOLECULE
*****
 27 29 0 0 0
SMALL
GASTEIGER

@<TRIPOS>ATOM
      1 C          63.2999   89.9409   12.2612 C.ar    1  UNL1       -0.0059
      2 C          63.6643   88.7537   13.1024 C.ar    1  UNL1        0.0002
      3 C          63.2616   87.3754   12.6689 C.ar    1  UNL1        0.0366
      4 C          62.4945   87.1842   11.3942 C.ar    1  UNL1        0.1390
      5 C          62.1301   88.3714   10.5529 C.ar    1  UNL1        0.0366
      6 C          62.5328   89.7497   10.9864 C.ar    1  UNL1        0.0002
      7 C          63.7026   91.3193   12.6946 C.3     1  UNL1        0.0995
      8 C          66.1787   92.3142   12.8482 C.3     1  UNL1        0.1376
      9 C          67.1334   92.9382   11.8740 C.3     1  UNL1        0.0620
     10 C          66.4675   92.9735   10.5303 C.3     1  UNL1        0.1787
     11 F          67.0632   93.5157    9.2650 F       1  UNL1       -0.2357
     12 C          65.1012   92.3713   10.6742 C.3     1  UNL1        0.1084
     13 N          64.9227   91.9639   12.1068 N.3     1  UNL1       -0.2603
     14 N          67.6563   91.3277   14.7440 N.am    1  UNL1       -0.3277
     15 C          66.4350   92.0815   14.3077 C.2     1  UNL1        0.2340
     16 O          65.4700   92.6026   15.3311 O.2     1  UNL1       -0.2739
     17 H          67.8245   91.1750   15.7019 H       1  UNL1        0.1450
     18 H          68.2897   90.9857   14.0724 H       1  UNL1        0.1450
     19 O          62.0918   85.8058   10.9607 O.3     1  UNL1       -0.4706
     20 C          63.0520   84.6628   11.1078 C.3     1  UNL1        0.2321
     21 C          62.7988   83.5978   12.1334 C.ar    1  UNL1        0.0234
     22 C          62.5774   83.9756   13.5680 C.ar    1  UNL1       -0.0005
     23 C          62.3242   82.9106   14.5935 C.ar    1  UNL1        0.0021
     24 C          62.2925   81.4678   14.1843 C.ar    1  UNL1        0.0296
     25 C          62.5139   81.0901   12.7497 C.ar    1  UNL1        0.1399
     26 F          62.4821   79.6473   12.3405 F       1  UNL1       -0.2042
     27 C          62.7670   82.1550   11.7242 C.ar    1  UNL1        0.0289
@<TRIPOS>BOND
     1    14    15   am
     2    15    16    2
     3     8    15    1
     4     8     9    1
     5     9    10    1
     6    10    11    1
     7    10    12    1
     8    12    13    1
     9    13     7    1
    10     7     1    1
    11     1     2   ar
    12     2     3   ar
    13     3     4   ar
    14     4    19    1
    15    19    20    1
    16    20    21    1
    17    21    22   ar
    18    22    23   ar
    19    23    24   ar
    20    24    25   ar
    21    25    26    1
    22    25    27   ar
    23     4     5   ar
    24     5     6   ar
    25    13     8    1
    26     6     1   ar
    27    27    21   ar
    28    14    17    1
    29    14    18    1
@<TRIPOS>MOLECULE
*****
 27 29 0 0 0
SMALL
GASTEIGER

@<TRIPOS>ATOM
      1 C          64.2061   85.4912   15.0823 C.ar    1  UNL1       -0.0059
      2 C          63.5419   85.8267   16.3846 C.ar    1  UNL1        0.0002
      3 C          63.2409   87.2558   16.7267 C.ar    1  UNL1        0.0366
      4 C          63.6042   88.3494   15.7664 C.ar    1  UNL1        0.1390
      5 C          64.2684   88.0138   14.4641 C.ar    1  UNL1        0.0366
      6 C          64.5694   86.5847   14.1220 C.ar    1  UNL1        0.0002
      7 C          64.5072   84.0620   14.7402 C.3     1  UNL1        0.0995
      8 C          63.0685   82.9772   12.7658 C.3     1  UNL1        0.1376
      9 C          61.9270   82.0068   12.6948 C.3     1  UNL1        0.0620
     10 C          61.5743   81.6027   14.0957 C.3     1  UNL1        0.1787
     11 F          60.4886   80.6459   14.4905 F       1  UNL1       -0.2357
     12 C          62.4979   82.3234   15.0324 C.3     1  UNL1        0.1084
     13 N          63.4214   83.1729   14.2105 N.3     1  UNL1       -0.2603
     14 N          63.1701   84.8979   11.0190 N.am    1  UNL1       -0.3277
     15 C          63.7394   83.6362   11.5972 C.2     1  UNL1        0.2340
     16 O          64.9796   83.0336   11.0067 O.2     1  UNL1       -0.2739
     17 H          63.6105   85.3304   10.2520 H       1  UNL1        0.1450
     18 H          62.3561   85.2934   11.4065 H       1  UNL1        0.1450
     19 O          63.3031   89.7785   16.1085 O.3     1  UNL1       -0.4706
     20 C          63.6515   90.8707   15.1412 C.3     1  UNL1        0.2321
     21 C          65.0358   91.4483   15.1289 C.ar    1  UNL1        0.0234
     22 C          65.5169   92.2678   16.2895 C.ar    1  UNL1       -0.0005
     23 C          66.9011   92.8453   16.2772 C.ar    1  UNL1        0.0021
     24 C          67.8043   92.6035   15.1043 C.ar    1  UNL1        0.0296
     25 C          67.3233   91.7840   13.9437 C.ar    1  UNL1        0.1399
     26 F          68.2265   91.5422   12.7708 F       1  UNL1       -0.2042
     27 C          65.9390   91.2064   13.9560 C.ar    1  UNL1        0.0289
@<TRIPOS>BOND
     1    14    15   am
     2    15    16    2
     3     8    15    1
     4     8     9    1
     5     9    10    1
     6    10    11    1
     7    10    12    1
     8    12    13    1
     9    13     7    1
    10     7     1    1
    11     1     2   ar
    12     2     3   ar
    13     3     4   ar
    14     4    19    1
    15    19    20    1
    16    20    21    1
    17    21    22   ar
    18    22    23   ar
    19    23    24   ar
    20    24    25   ar
    21    25    26    1
    22    25    27   ar
    23     4     5   ar
    24     5     6   ar
    25    13     8    1
    26     6     1   ar
    27    27    21   ar
    28    14    17    1
    29    14    18    1
