@<TRIPOS>MOLECULE
*****
 19 20 0 0 0
SMALL
GASTEIGER

@<TRIPOS>ATOM
      1 C          63.7048   85.2415   15.1835 C.2     1  UNL1        0.1898
      2 N          64.2552   86.2776   14.2488 N.2     1  UNL1       -0.2199
      3 C          64.0515   87.6242   14.8776 C.2     1  UNL1        0.1003
      4 C          64.3944   89.0096   14.4162 C.2     1  UNL1        0.0569
      5 C          64.0611   90.1911   15.2781 C.2     1  UNL1        0.1364
      6 C          63.3849   89.9872   16.6014 C.2     1  UNL1        0.0172
      7 C          63.0420   88.6017   17.0628 C.3     1  UNL1        0.0765
      8 C          63.3753   87.4202   16.2009 C.2     1  UNL1        0.0833
      9 N          63.1610   85.9477   16.3899 N.2     1  UNL1       -0.2238
     10 O          64.4040   91.5766   14.8167 O.2     1  UNL1       -0.4717
     11 C          65.7506   92.1592   15.1288 C.3     1  UNL1        0.2525
     12 S          63.6993   83.7594   14.9522 S.3     1  UNL1       -0.0757
     13 C          62.3977   83.0198   14.8586 C.3     1  UNL1        0.0652
     14 C          62.3279   81.7148   14.1224 C.3     1  UNL1        0.0121
     15 C          63.3343   81.4008   13.0554 C.3     1  UNL1        0.0009
     16 C          62.9529   81.5109   11.6089 C.3     1  UNL1        0.0000
     17 C          63.8806   82.1780   10.6372 C.3     1  UNL1        0.0000
     18 C          62.8351   84.4935   11.1811 C.3     1  UNL1        0.0000
     19 C          63.7143   83.6348   10.3209 C.3     1  UNL1        0.0000
@<TRIPOS>BOND
     1    18    19    1
     2    19    17    1
     3    17    16    1
     4    16    15    1
     5    15    14    1
     6    14    13    1
     7    13    12    1
     8    12     1    1
     9     1     2    2
    10     2     3    1
    11     3     4    2
    12     4     5    1
    13     5    10    1
    14    10    11    1
    15     5     6    2
    16     6     7    1
    17     7     8    1
    18     8     9    2
    19     9     1    1
    20     8     3    1
@<TRIPOS>MOLECULE
*****
 19 20 0 0 0
SMALL
GASTEIGER

@<TRIPOS>ATOM
      1 C          61.2207   87.1128   10.1511 C.2     1  UNL1        0.1898
      2 N          61.3848   86.4041   11.4629 N.2     1  UNL1       -0.2199
      3 C          62.2921   85.2296   11.2449 C.2     1  UNL1        0.1003
      4 C          62.8083   84.1736   12.1767 C.2     1  UNL1        0.0569
      5 C          63.7211   83.1004   11.6620 C.2     1  UNL1        0.1364
      6 C          64.1177   83.0832   10.2155 C.2     1  UNL1        0.0172
      7 C          63.6015   84.1392    9.2837 C.3     1  UNL1        0.0765
      8 C          62.6887   85.2124    9.7984 C.2     1  UNL1        0.0833
      9 N          62.0265   86.3763    9.1224 N.2     1  UNL1       -0.2238
     10 O          64.2374   82.0443   12.5938 O.2     1  UNL1       -0.4717
     11 C          63.4073   81.6053   13.7635 C.3     1  UNL1        0.2525
     12 S          60.3956   88.3421    9.9103 S.3     1  UNL1       -0.0757
     13 C          60.8474   89.6663   10.4509 C.3     1  UNL1        0.0652
     14 C          62.2671   90.1104   10.2577 C.3     1  UNL1        0.0121
     15 C          63.1323   90.3958   11.4494 C.3     1  UNL1        0.0009
     16 C          63.2883   89.3643   12.5272 C.3     1  UNL1        0.0000
     17 C          64.0602   89.6903   13.7713 C.3     1  UNL1        0.0000
     18 C          64.2985   87.1809   14.4006 C.3     1  UNL1        0.0000
     19 C          64.3100   88.6269   14.7993 C.3     1  UNL1        0.0000
@<TRIPOS>BOND
     1    18    19    1
     2    19    17    1
     3    17    16    1
     4    16    15    1
     5    15    14    1
     6    14    13    1
     7    13    12    1
     8    12     1    1
     9     1     2    2
    10     2     3    1
    11     3     4    2
    12     4     5    1
    13     5    10    1
    14    10    11    1
    15     5     6    2
    16     6     7    1
    17     7     8    1
    18     8     9    2
    19     9     1    1
    20     8     3    1
@<TRIPOS>MOLECULE
*****
 19 20 0 0 0
SMALL
GASTEIGER

@<TRIPOS>ATOM
      1 C          61.5713   88.5117   10.4709 C.2     1  UNL1        0.1898
      2 N          62.1245   89.8691   10.1522 N.2     1  UNL1       -0.2199
      3 C          63.0257   90.2787   11.2791 C.2     1  UNL1        0.1003
      4 C          63.8434   91.5145   11.5120 C.2     1  UNL1        0.0569
      5 C          64.6649   91.6460   12.7601 C.2     1  UNL1        0.1364
      6 C          64.6687   90.5418   13.7754 C.2     1  UNL1        0.0172
      7 C          63.8510   89.3061   13.5425 C.3     1  UNL1        0.0765
      8 C          63.0296   89.1745   12.2944 C.2     1  UNL1        0.0833
      9 N          62.1307   88.0825   11.7949 N.2     1  UNL1       -0.2238
     10 O          65.4826   92.8819   12.9930 O.2     1  UNL1       -0.4717
     11 C          66.3364   92.9958   14.2211 C.3     1  UNL1        0.2525
     12 S          60.6249   87.7223    9.6159 S.3     1  UNL1       -0.0757
     13 C          60.8935   86.2723    9.3417 C.3     1  UNL1        0.0652
     14 C          61.8698   85.8793    8.2729 C.3     1  UNL1        0.0121
     15 C          63.1327   85.1575    8.6393 C.3     1  UNL1        0.0009
     16 C          63.2243   84.4209    9.9428 C.3     1  UNL1        0.0000
     17 C          64.1009   83.2093   10.0596 C.3     1  UNL1        0.0000
     18 C          63.6622   82.0192   12.3271 C.3     1  UNL1        0.0000
     19 C          63.6262   82.0114   10.8275 C.3     1  UNL1        0.0000
@<TRIPOS>BOND
     1    18    19    1
     2    19    17    1
     3    17    16    1
     4    16    15    1
     5    15    14    1
     6    14    13    1
     7    13    12    1
     8    12     1    1
     9     1     2    2
    10     2     3    1
    11     3     4    2
    12     4     5    1
    13     5    10    1
    14    10    11    1
    15     5     6    2
    16     6     7    1
    17     7     8    1
    18     8     9    2
    19     9     1    1
    20     8     3    1
@<TRIPOS>MOLECULE
*****
 19 20 0 0 0
SMALL
GASTEIGER

@<TRIPOS>ATOM
      1 C          63.7950   85.5010   15.2953 C.2     1  UNL1        0.1898
      2 N          64.3876   86.4807   14.3262 N.2     1  UNL1       -0.2199
      3 C          64.1567   87.8619   14.8638 C.2     1  UNL1        0.1003
      4 C          64.5209   89.2181   14.3365 C.2     1  UNL1        0.0569
      5 C          64.1500   90.4482   15.1105 C.2     1  UNL1        0.1364
      6 C          63.4147   90.3222   16.4118 C.2     1  UNL1        0.0172
      7 C          63.0505   88.9660   16.9392 C.3     1  UNL1        0.0765
      8 C          63.4214   87.7359   16.1652 C.2     1  UNL1        0.0833
      9 N          63.1979   86.2768   16.4318 N.2     1  UNL1       -0.2238
     10 O          64.5142   91.8044   14.5831 O.2     1  UNL1       -0.4717
     11 C          64.9709   91.9590   13.1627 C.3     1  UNL1        0.2525
     12 S          63.7989   84.0078   15.1529 S.3     1  UNL1       -0.0757
     13 C          63.8249   83.3846   13.7888 C.3     1  UNL1        0.0652
     14 C          62.7008   83.6358   12.8279 C.3     1  UNL1        0.0121
     15 C          62.9606   84.3675   11.5445 C.3     1  UNL1        0.0009
     16 C          62.0669   85.4996   11.1324 C.3     1  UNL1        0.0000
     17 C          61.8901   85.8247    9.6788 C.3     1  UNL1        0.0000
     18 C          62.5971   84.9568    7.3343 C.3     1  UNL1        0.0000
     19 C          62.9653   85.4702    8.6948 C.3     1  UNL1        0.0000
@<TRIPOS>BOND
     1    18    19    1
     2    19    17    1
     3    17    16    1
     4    16    15    1
     5    15    14    1
     6    14    13    1
     7    13    12    1
     8    12     1    1
     9     1     2    2
    10     2     3    1
    11     3     4    2
    12     4     5    1
    13     5    10    1
    14    10    11    1
    15     5     6    2
    16     6     7    1
    17     7     8    1
    18     8     9    2
    19     9     1    1
    20     8     3    1
@<TRIPOS>MOLECULE
*****
 19 20 0 0 0
SMALL
GASTEIGER

@<TRIPOS>ATOM
      1 C          63.4707   85.9679   15.4555 C.2     1  UNL1        0.1898
      2 N          64.1682   86.7901   14.4127 N.2     1  UNL1       -0.2199
      3 C          64.1115   88.2267   14.8405 C.2     1  UNL1        0.1003
      4 C          64.6322   89.4835   14.2087 C.2     1  UNL1        0.0569
      5 C          64.4203   90.8059   14.8841 C.2     1  UNL1        0.1364
      6 C          63.6877   90.8716   16.1914 C.2     1  UNL1        0.0172
      7 C          63.1670   89.6148   16.8232 C.3     1  UNL1        0.0765
      8 C          63.3788   88.2923   16.1478 C.2     1  UNL1        0.0833
      9 N          62.9829   86.8964   16.5278 N.2     1  UNL1       -0.2238
     10 O          64.9410   92.0628   14.2522 O.2     1  UNL1       -0.4717
     11 C          65.1452   92.1269   12.7676 C.3     1  UNL1        0.2525
     12 S          63.2924   84.4788   15.4303 S.3     1  UNL1       -0.0757
     13 C          64.2986   83.6146   14.7297 C.3     1  UNL1        0.0652
     14 C          64.4564   83.7037   13.2407 C.3     1  UNL1        0.0121
     15 C          63.2437   83.7828   12.3614 C.3     1  UNL1        0.0009
     16 C          62.5765   82.5251   11.8891 C.3     1  UNL1        0.0000
     17 C          63.0717   81.1904   12.3618 C.3     1  UNL1        0.0000
     18 C          61.1915   81.0255   14.1472 C.3     1  UNL1        0.0000
     19 C          62.2326   80.3657   13.2923 C.3     1  UNL1        0.0000
@<TRIPOS>BOND
     1    18    19    1
     2    19    17    1
     3    17    16    1
     4    16    15    1
     5    15    14    1
     6    14    13    1
     7    13    12    1
     8    12     1    1
     9     1     2    2
    10     2     3    1
    11     3     4    2
    12     4     5    1
    13     5    10    1
    14    10    11    1
    15     5     6    2
    16     6     7    1
    17     7     8    1
    18     8     9    2
    19     9     1    1
    20     8     3    1
@<TRIPOS>MOLECULE
*****
 19 20 0 0 0
SMALL
GASTEIGER

@<TRIPOS>ATOM
      1 C          61.6841   89.7596   10.8449 C.2     1  UNL1        0.1898
      2 N          62.6188   90.8831   10.5071 N.2     1  UNL1       -0.2199
      3 C          63.5808   91.0442   11.6467 C.2     1  UNL1        0.1003
      4 C          64.7226   91.9910   11.8701 C.2     1  UNL1        0.0569
      5 C          65.5241   91.9138   13.1356 C.2     1  UNL1        0.1364
      6 C          65.1839   90.8899   14.1777 C.2     1  UNL1        0.0172
      7 C          64.0422   89.9432   13.9542 C.3     1  UNL1        0.0765
      8 C          63.2406   90.0203   12.6888 C.2     1  UNL1        0.0833
      9 N          62.0684   89.2264   12.1932 N.2     1  UNL1       -0.2238
     10 O          66.6660   92.8606   13.3591 O.2     1  UNL1       -0.4717
     11 C          67.4635   92.7877   14.6274 C.3     1  UNL1        0.2525
     12 S          60.5621   89.2575    9.9852 S.3     1  UNL1       -0.0757
     13 C          60.6821   87.9316    9.2942 C.3     1  UNL1        0.0652
     14 C          61.9842   87.1873    9.3206 C.3     1  UNL1        0.0121
     15 C          62.0622   85.8353    9.9657 C.3     1  UNL1        0.0009
     16 C          62.1247   85.7197   11.4599 C.3     1  UNL1        0.0000
     17 C          62.7906   84.5342   12.0933 C.3     1  UNL1        0.0000
     18 C          64.3563   83.1110   10.5855 C.3     1  UNL1        0.0000
     19 C          63.0426   83.2954   11.2859 C.3     1  UNL1        0.0000
@<TRIPOS>BOND
     1    18    19    1
     2    19    17    1
     3    17    16    1
     4    16    15    1
     5    15    14    1
     6    14    13    1
     7    13    12    1
     8    12     1    1
     9     1     2    2
    10     2     3    1
    11     3     4    2
    12     4     5    1
    13     5    10    1
    14    10    11    1
    15     5     6    2
    16     6     7    1
    17     7     8    1
    18     8     9    2
    19     9     1    1
    20     8     3    1
@<TRIPOS>MOLECULE
*****
 19 20 0 0 0
SMALL
GASTEIGER

@<TRIPOS>ATOM
      1 C          61.6439   89.8398   10.5813 C.2     1  UNL1        0.1898
      2 N          61.9439   89.5362   12.0193 N.2     1  UNL1       -0.2199
      3 C          63.1380   90.3481   12.4252 C.2     1  UNL1        0.1003
      4 C          63.8831   90.4581   13.7224 C.2     1  UNL1        0.0569
      5 C          65.0662   91.3735   13.8325 C.2     1  UNL1        0.1364
      6 C          65.5043   92.1790   12.6454 C.2     1  UNL1        0.0172
      7 C          64.7592   92.0690   11.3482 C.3     1  UNL1        0.0765
      8 C          63.5761   91.1536   11.2381 C.2     1  UNL1        0.0833
      9 N          62.6527   90.8394   10.0985 N.2     1  UNL1       -0.2238
     10 O          65.8113   91.4835   15.1298 O.2     1  UNL1       -0.4717
     11 C          66.6886   92.6715   15.3923 C.3     1  UNL1        0.2525
     12 S          60.5306   89.2478    9.7688 S.3     1  UNL1       -0.0757
     13 C          60.6301   87.8339    9.2782 C.3     1  UNL1        0.0652
     14 C          60.8593   86.7164   10.2522 C.3     1  UNL1        0.0121
     15 C          61.9741   85.7391   10.0236 C.3     1  UNL1        0.0009
     16 C          62.9002   85.9171    8.8571 C.3     1  UNL1        0.0000
     17 C          62.8698   84.9401    7.7195 C.3     1  UNL1        0.0000
     18 C          61.7863   84.1289    5.5018 C.3     1  UNL1        0.0000
     19 C          61.7151   84.9393    6.7621 C.3     1  UNL1        0.0000
@<TRIPOS>BOND
     1    18    19    1
     2    19    17    1
     3    17    16    1
     4    16    15    1
     5    15    14    1
     6    14    13    1
     7    13    12    1
     8    12     1    1
     9     1     2    2
    10     2     3    1
    11     3     4    2
    12     4     5    1
    13     5    10    1
    14    10    11    1
    15     5     6    2
    16     6     7    1
    17     7     8    1
    18     8     9    2
    19     9     1    1
    20     8     3    1
@<TRIPOS>MOLECULE
*****
 19 20 0 0 0
SMALL
GASTEIGER

@<TRIPOS>ATOM
      1 C          62.2073   88.5922   10.8274 C.2     1  UNL1        0.1898
      2 N          62.7439   89.9666   10.5568 N.2     1  UNL1       -0.2199
      3 C          63.5359   90.3992   11.7549 C.2     1  UNL1        0.1003
      4 C          64.2939   91.6581   12.0558 C.2     1  UNL1        0.0569
      5 C          65.0048   91.8100   13.3679 C.2     1  UNL1        0.1364
      6 C          64.9577   90.7030   14.3790 C.2     1  UNL1        0.0172
      7 C          64.1997   89.4441   14.0781 C.3     1  UNL1        0.0765
      8 C          63.4888   89.2922   12.7660 C.2     1  UNL1        0.0833
      9 N          62.6677   88.1755   12.1928 N.2     1  UNL1       -0.2238
     10 O          65.7629   93.0689   13.6688 O.2     1  UNL1       -0.4717
     11 C          66.3606   93.8700   12.5503 C.3     1  UNL1        0.2525
     12 S          61.3592   87.7777    9.8961 S.3     1  UNL1       -0.0757
     13 C          61.1535   86.3146   10.1551 C.3     1  UNL1        0.0652
     14 C          62.3349   85.4220   10.3948 C.3     1  UNL1        0.0121
     15 C          62.4527   84.6637   11.6837 C.3     1  UNL1        0.0009
     16 C          63.6441   83.7868   11.9317 C.3     1  UNL1        0.0000
     17 C          64.1230   83.5509   13.3334 C.3     1  UNL1        0.0000
     18 C          64.2894   85.7027   14.7799 C.3     1  UNL1        0.0000
     19 C          64.9547   84.5891   14.0266 C.3     1  UNL1        0.0000
@<TRIPOS>BOND
     1    18    19    1
     2    19    17    1
     3    17    16    1
     4    16    15    1
     5    15    14    1
     6    14    13    1
     7    13    12    1
     8    12     1    1
     9     1     2    2
    10     2     3    1
    11     3     4    2
    12     4     5    1
    13     5    10    1
    14    10    11    1
    15     5     6    2
    16     6     7    1
    17     7     8    1
    18     8     9    2
    19     9     1    1
    20     8     3    1
@<TRIPOS>MOLECULE
*****
 19 20 0 0 0
SMALL
GASTEIGER

@<TRIPOS>ATOM
      1 C          62.0450   90.0683   12.0106 C.2     1  UNL1        0.1898
      2 N          62.7365   89.7049   13.2912 N.2     1  UNL1       -0.2199
      3 C          63.9952   90.5153   13.3846 C.2     1  UNL1        0.1003
      4 C          65.0738   90.5779   14.4251 C.2     1  UNL1        0.0569
      5 C          66.2389   91.5049   14.2428 C.2     1  UNL1        0.1364
      6 C          66.3254   92.3692   13.0199 C.2     1  UNL1        0.0172
      7 C          65.2468   92.3067   11.9794 C.3     1  UNL1        0.0765
      8 C          64.0817   91.3797   12.1617 C.2     1  UNL1        0.0833
      9 N          62.8764   91.1035   11.3126 N.2     1  UNL1       -0.2238
     10 O          67.3175   91.5675   15.2833 O.2     1  UNL1       -0.4717
     11 C          68.0328   92.8597   15.5453 C.3     1  UNL1        0.2525
     12 S          60.7496   89.4970   11.5152 S.3     1  UNL1       -0.0757
     13 C          60.2042   89.9196   10.1833 C.3     1  UNL1        0.0652
     14 C          60.2197   88.9624    9.0285 C.3     1  UNL1        0.0121
     15 C          59.3802   87.7201    9.0728 C.3     1  UNL1        0.0009
     16 C          59.4694   86.7147    7.9632 C.3     1  UNL1        0.0000
     17 C          60.7730   86.0320    7.6728 C.3     1  UNL1        0.0000
     18 C          63.1310   85.2846    8.4675 C.3     1  UNL1        0.0000
     19 C          61.7492   85.7760    8.7826 C.3     1  UNL1        0.0000
@<TRIPOS>BOND
     1    18    19    1
     2    19    17    1
     3    17    16    1
     4    16    15    1
     5    15    14    1
     6    14    13    1
     7    13    12    1
     8    12     1    1
     9     1     2    2
    10     2     3    1
    11     3     4    2
    12     4     5    1
    13     5    10    1
    14    10    11    1
    15     5     6    2
    16     6     7    1
    17     7     8    1
    18     8     9    2
    19     9     1    1
    20     8     3    1
