@<TRIPOS>MOLECULE
*****
 26 29 0 0 0
SMALL
GASTEIGER

@<TRIPOS>ATOM
      1 C          66.0989   92.7846   12.3953 C.3     1  UNL1        0.1344
      2 C          66.3193   93.7094   11.2350 C.ar    1  UNL1        0.0131
      3 C          65.6503   95.0516   11.2082 C.ar    1  UNL1       -0.0004
      4 C          65.8707   95.9764   10.0480 C.ar    1  UNL1        0.0112
      5 C          66.7601   95.5590    8.9146 C.ar    1  UNL1        0.0585
      6 CL         66.9805   96.4838    7.7544 Cl      1  UNL1       -0.0822
      7 C          67.4292   94.2168    8.9415 C.ar    1  UNL1        0.0225
      8 C          67.2088   93.2920   10.1017 C.ar    1  UNL1        0.0566
      9 CL         67.8779   91.9497   10.1286 Cl      1  UNL1       -0.0825
     10 N          63.1780   90.3645   11.5726 N.ar    1  UNL1       -0.3038
     11 C          63.2845   90.1956   13.0593 C.ar    1  UNL1        0.0799
     12 C          64.3916   91.0816   13.5484 C.ar    1  UNL1        0.0184
     13 C          64.9694   91.7981   12.3641 C.ar    1  UNL1        0.0215
     14 C          64.2194   91.3549   11.1430 C.ar    1  UNL1        0.0779
     15 CL         59.2727   87.5692    7.9761 Cl      1  UNL1       -0.0822
     16 C          60.2490   88.2680    8.8752 C.ar    1  UNL1        0.0578
     17 C          61.4805   87.5523    9.3455 C.ar    1  UNL1        0.0129
     18 C          62.4568   88.2511   10.2446 C.ar    1  UNL1        0.0184
     19 C          62.2017   89.6657   10.6735 C.ar    1  UNL1        0.0641
     20 C          60.9702   90.3814   10.2033 C.ar    1  UNL1        0.0184
     21 C          59.9939   89.6826    9.3041 C.ar    1  UNL1        0.0129
     22 N          67.0081   92.8463   13.5868 N.ar    1  UNL1       -0.3019
     23 C          66.8828   93.7932   14.7433 C.ar    1  UNL1        0.0985
     24 C          67.9994   93.5040   15.7023 C.ar    1  UNL1        0.1193
     25 N          68.8148   92.3783   15.1384 N.ar    1  UNL1       -0.2223
     26 C          68.2021   91.9718   13.8309 C.ar    1  UNL1        0.1791
@<TRIPOS>BOND
     1    15    16    1
     2    16    17   ar
     3    17    18   ar
     4    18    19   ar
     5    19    10    1
     6    10    11   ar
     7    11    12   ar
     8    12    13   ar
     9    13     1    1
    10     1     2    1
    11     2     3   ar
    12     3     4   ar
    13     4     5   ar
    14     5     6    1
    15     5     7   ar
    16     7     8   ar
    17     8     9    1
    18     1    22    1
    19    22    23   ar
    20    23    24   ar
    21    24    25   ar
    22    25    26   ar
    23    13    14   ar
    24    19    20   ar
    25    20    21   ar
    26    21    16   ar
    27    14    10   ar
    28     8     2   ar
    29    26    22   ar
@<TRIPOS>MOLECULE
*****
 26 29 0 0 0
SMALL
GASTEIGER

@<TRIPOS>ATOM
      1 C          61.7129   87.4631    9.9503 C.3     1  UNL1        0.1344
      2 C          62.2547   86.1425   10.4113 C.ar    1  UNL1        0.0131
      3 C          62.0500   85.7021   11.8305 C.ar    1  UNL1       -0.0004
      4 C          62.5917   84.3816   12.2916 C.ar    1  UNL1        0.0112
      5 C          63.3381   83.5013   11.3334 C.ar    1  UNL1        0.0585
      6 CL         63.8798   82.1807   11.7945 Cl      1  UNL1       -0.0822
      7 C          63.5427   83.9417    9.9142 C.ar    1  UNL1        0.0225
      8 C          63.0010   85.2623    9.4532 C.ar    1  UNL1        0.0566
      9 CL         63.2057   85.7026    8.0340 Cl      1  UNL1       -0.0825
     10 N          63.4807   90.3457   11.8557 N.ar    1  UNL1       -0.3038
     11 C          63.0010   91.0613   10.6277 C.ar    1  UNL1        0.0799
     12 C          62.2804   90.0686    9.7645 C.ar    1  UNL1        0.0184
     13 C          62.3147   88.7394   10.4589 C.ar    1  UNL1        0.0215
     14 C          63.0566   88.9107   11.7513 C.ar    1  UNL1        0.0779
     15 CL         66.5562   92.7937   16.3888 Cl      1  UNL1       -0.0822
     16 C          65.7873   92.1817   15.2555 C.ar    1  UNL1        0.0578
     17 C          66.1345   92.5309   13.8387 C.ar    1  UNL1        0.0129
     18 C          65.3657   91.9189   12.7054 C.ar    1  UNL1        0.0184
     19 C          64.2496   90.9577   12.9890 C.ar    1  UNL1        0.0641
     20 C          63.9024   90.6085   14.4058 C.ar    1  UNL1        0.0184
     21 C          64.6713   91.2205   15.5391 C.ar    1  UNL1        0.0129
     22 N          60.5694   87.5073    8.9806 N.ar    1  UNL1       -0.3019
     23 C          60.0120   88.7387    8.3302 C.ar    1  UNL1        0.0985
     24 C          58.8806   88.3204    7.4386 C.ar    1  UNL1        0.1193
     25 N          58.7387   86.8304    7.5380 N.ar    1  UNL1       -0.2223
     26 C          59.7825   86.3279    8.4910 C.ar    1  UNL1        0.1791
@<TRIPOS>BOND
     1    15    16    1
     2    16    17   ar
     3    17    18   ar
     4    18    19   ar
     5    19    10    1
     6    10    11   ar
     7    11    12   ar
     8    12    13   ar
     9    13     1    1
    10     1     2    1
    11     2     3   ar
    12     3     4   ar
    13     4     5   ar
    14     5     6    1
    15     5     7   ar
    16     7     8   ar
    17     8     9    1
    18     1    22    1
    19    22    23   ar
    20    23    24   ar
    21    24    25   ar
    22    25    26   ar
    23    13    14   ar
    24    19    20   ar
    25    20    21   ar
    26    21    16   ar
    27    14    10   ar
    28     8     2   ar
    29    26    22   ar
@<TRIPOS>MOLECULE
*****
 26 29 0 0 0
SMALL
GASTEIGER

@<TRIPOS>ATOM
      1 C          64.4309   89.9965   14.3449 C.3     1  UNL1        0.1344
      2 C          65.5036   90.9695   14.7358 C.ar    1  UNL1        0.0131
      3 C          66.8255   90.9530   14.0271 C.ar    1  UNL1       -0.0004
      4 C          67.8981   91.9259   14.4180 C.ar    1  UNL1        0.0112
      5 C          67.6489   92.9153   15.5174 C.ar    1  UNL1        0.0585
      6 CL         68.7216   93.8882   15.9083 Cl      1  UNL1       -0.0822
      7 C          66.3269   92.9318   16.2261 C.ar    1  UNL1        0.0225
      8 C          65.2542   91.9588   15.8352 C.ar    1  UNL1        0.0566
      9 CL         63.9323   91.9753   16.5439 Cl      1  UNL1       -0.0825
     10 N          62.5374   89.5284   10.9892 N.ar    1  UNL1       -0.3038
     11 C          63.1150   90.9007   10.8071 C.ar    1  UNL1        0.0799
     12 C          63.8946   91.2431   12.0420 C.ar    1  UNL1        0.0184
     13 C          63.7988   90.0824   12.9873 C.ar    1  UNL1        0.0215
     14 C          62.9600   89.0227   12.3366 C.ar    1  UNL1        0.0779
     15 CL         59.1339   86.5798    7.0240 Cl      1  UNL1       -0.0822
     16 C          59.9848   87.3170    8.0153 C.ar    1  UNL1        0.0578
     17 C          61.0559   86.5890    8.7721 C.ar    1  UNL1        0.0129
     18 C          61.9068   87.3262    9.7633 C.ar    1  UNL1        0.0184
     19 C          61.6865   88.7912    9.9979 C.ar    1  UNL1        0.0641
     20 C          60.6153   89.5191    9.2411 C.ar    1  UNL1        0.0184
     21 C          59.7645   88.7820    8.2498 C.ar    1  UNL1        0.0129
     22 N          63.9902   88.9377   15.3117 N.ar    1  UNL1       -0.3019
     23 C          63.2002   89.1632   16.5666 C.ar    1  UNL1        0.0985
     24 C          62.9839   87.8323   17.2238 C.ar    1  UNL1        0.1193
     25 N          63.6403   86.7841   16.3750 N.ar    1  UNL1       -0.2223
     26 C          64.2622   87.4674   15.1932 C.ar    1  UNL1        0.1791
@<TRIPOS>BOND
     1    15    16    1
     2    16    17   ar
     3    17    18   ar
     4    18    19   ar
     5    19    10    1
     6    10    11   ar
     7    11    12   ar
     8    12    13   ar
     9    13     1    1
    10     1     2    1
    11     2     3   ar
    12     3     4   ar
    13     4     5   ar
    14     5     6    1
    15     5     7   ar
    16     7     8   ar
    17     8     9    1
    18     1    22    1
    19    22    23   ar
    20    23    24   ar
    21    24    25   ar
    22    25    26   ar
    23    13    14   ar
    24    19    20   ar
    25    20    21   ar
    26    21    16   ar
    27    14    10   ar
    28     8     2   ar
    29    26    22   ar
@<TRIPOS>MOLECULE
*****
 26 29 0 0 0
SMALL
GASTEIGER

@<TRIPOS>ATOM
      1 C          63.6962   89.4743   13.1910 C.3     1  UNL1        0.1344
      2 C          64.5967   90.5453   13.7314 C.ar    1  UNL1        0.0131
      3 C          65.6207   91.1841   12.8407 C.ar    1  UNL1       -0.0004
      4 C          66.5211   92.2551   13.3811 C.ar    1  UNL1        0.0112
      5 C          66.3976   92.6873   14.8121 C.ar    1  UNL1        0.0585
      6 CL         67.2981   93.7583   15.3525 Cl      1  UNL1       -0.0822
      7 C          65.3737   92.0484   15.7028 C.ar    1  UNL1        0.0225
      8 C          64.4732   90.9774   15.1624 C.ar    1  UNL1        0.0566
      9 CL         63.4492   90.3385   16.0530 Cl      1  UNL1       -0.0825
     10 N          63.7595   85.6295   13.7196 N.ar    1  UNL1       -0.3038
     11 C          64.5155   86.1005   14.9265 C.ar    1  UNL1        0.0799
     12 C          64.5838   87.5981   14.8754 C.ar    1  UNL1        0.0184
     13 C          63.8700   88.0527   13.6369 C.ar    1  UNL1        0.0215
     14 C          63.3606   86.8360   12.9226 C.ar    1  UNL1        0.0779
     15 CL         62.5445   79.9217   12.3249 Cl      1  UNL1       -0.0822
     16 C          62.8483   81.3487   12.6736 C.ar    1  UNL1        0.0578
     17 C          62.3111   81.9414   13.9425 C.ar    1  UNL1        0.0129
     18 C          62.6148   83.3683   14.2911 C.ar    1  UNL1        0.0184
     19 C          63.4558   84.2026   13.3709 C.ar    1  UNL1        0.0641
     20 C          63.9929   83.6099   12.1021 C.ar    1  UNL1        0.0184
     21 C          63.6892   82.1829   11.7534 C.ar    1  UNL1        0.0129
     22 N          62.6219   89.8248   12.2046 N.ar    1  UNL1       -0.3019
     23 C          61.1448   89.8025   12.4647 C.ar    1  UNL1        0.0985
     24 C          60.4460   90.2231   11.2058 C.ar    1  UNL1        0.1193
     25 N          61.4912   90.5055   10.1677 N.ar    1  UNL1       -0.2223
     26 C          62.8360   90.2593   10.7850 C.ar    1  UNL1        0.1791
@<TRIPOS>BOND
     1    15    16    1
     2    16    17   ar
     3    17    18   ar
     4    18    19   ar
     5    19    10    1
     6    10    11   ar
     7    11    12   ar
     8    12    13   ar
     9    13     1    1
    10     1     2    1
    11     2     3   ar
    12     3     4   ar
    13     4     5   ar
    14     5     6    1
    15     5     7   ar
    16     7     8   ar
    17     8     9    1
    18     1    22    1
    19    22    23   ar
    20    23    24   ar
    21    24    25   ar
    22    25    26   ar
    23    13    14   ar
    24    19    20   ar
    25    20    21   ar
    26    21    16   ar
    27    14    10   ar
    28     8     2   ar
    29    26    22   ar
@<TRIPOS>MOLECULE
*****
 26 29 0 0 0
SMALL
GASTEIGER

@<TRIPOS>ATOM
      1 C          63.0157   89.7306   12.4176 C.3     1  UNL1        0.1344
      2 C          63.3970   88.3936   12.9806 C.ar    1  UNL1        0.0131
      3 C          64.1313   88.3113   14.2860 C.ar    1  UNL1       -0.0004
      4 C          64.5127   86.9744   14.8490 C.ar    1  UNL1        0.0112
      5 C          64.1597   85.7196   14.1067 C.ar    1  UNL1        0.0585
      6 CL         64.5410   84.3826   14.6697 Cl      1  UNL1       -0.0822
      7 C          63.4254   85.8019   12.8013 C.ar    1  UNL1        0.0225
      8 C          63.0441   87.1389   12.2383 C.ar    1  UNL1        0.0566
      9 CL         62.3098   87.2212   10.9329 Cl      1  UNL1       -0.0825
     10 N          65.4056   92.6770   11.5976 N.ar    1  UNL1       -0.3038
     11 C          65.7336   92.4307   13.0404 C.ar    1  UNL1        0.0799
     12 C          64.8783   91.2970   13.5232 C.ar    1  UNL1        0.0184
     13 C          64.0216   90.8426   12.3788 C.ar    1  UNL1        0.0215
     14 C          64.3475   91.6956   11.1887 C.ar    1  UNL1        0.0779
     15 CL         67.8896   96.8548    8.0796 Cl      1  UNL1       -0.0822
     16 C          67.2686   95.8104    8.9591 C.ar    1  UNL1        0.0578
     17 C          66.2057   96.1954    9.9450 C.ar    1  UNL1        0.0129
     18 C          65.5847   95.1509   10.8245 C.ar    1  UNL1        0.0184
     19 C          66.0266   93.7215   10.7181 C.ar    1  UNL1        0.0641
     20 C          67.0894   93.3365    9.7322 C.ar    1  UNL1        0.0184
     21 C          67.7104   94.3809    8.8527 C.ar    1  UNL1        0.0129
     22 N          61.6284   89.9556   11.8934 N.ar    1  UNL1       -0.3019
     23 C          60.3520   89.7011   12.6391 C.ar    1  UNL1        0.0985
     24 C          59.2087   90.0628   11.7380 C.ar    1  UNL1        0.1193
     25 N          59.7785   90.5409   10.4354 N.ar    1  UNL1       -0.2223
     26 C          61.2740   90.4747   10.5315 C.ar    1  UNL1        0.1791
@<TRIPOS>BOND
     1    15    16    1
     2    16    17   ar
     3    17    18   ar
     4    18    19   ar
     5    19    10    1
     6    10    11   ar
     7    11    12   ar
     8    12    13   ar
     9    13     1    1
    10     1     2    1
    11     2     3   ar
    12     3     4   ar
    13     4     5   ar
    14     5     6    1
    15     5     7   ar
    16     7     8   ar
    17     8     9    1
    18     1    22    1
    19    22    23   ar
    20    23    24   ar
    21    24    25   ar
    22    25    26   ar
    23    13    14   ar
    24    19    20   ar
    25    20    21   ar
    26    21    16   ar
    27    14    10   ar
    28     8     2   ar
    29    26    22   ar
@<TRIPOS>MOLECULE
*****
 26 29 0 0 0
SMALL
GASTEIGER

@<TRIPOS>ATOM
      1 C          63.0507   84.0646   12.4909 C.3     1  UNL1        0.1344
      2 C          62.7274   84.4738   11.0845 C.ar    1  UNL1        0.0131
      3 C          61.5719   85.3923   10.8174 C.ar    1  UNL1       -0.0004
      4 C          61.2486   85.8015    9.4111 C.ar    1  UNL1        0.0112
      5 C          62.0808   85.2924    8.2717 C.ar    1  UNL1        0.0585
      6 CL         61.7575   85.7016    6.8653 Cl      1  UNL1       -0.0822
      7 C          63.2363   84.3739    8.5388 C.ar    1  UNL1        0.0225
      8 C          63.5596   83.9647    9.9452 C.ar    1  UNL1        0.0566
      9 CL         64.7150   83.0462   10.2122 Cl      1  UNL1       -0.0825
     10 N          64.2382   87.0747   14.6343 N.ar    1  UNL1       -0.3038
     11 C          65.1878   86.0050   15.0857 C.ar    1  UNL1        0.0799
     12 C          64.8586   84.7471   14.3377 C.ar    1  UNL1        0.0184
     13 C          63.7054   85.0395   13.4240 C.ar    1  UNL1        0.0215
     14 C          63.3220   86.4780   13.6074 C.ar    1  UNL1        0.0779
     15 CL         64.1242   92.7450   16.5927 Cl      1  UNL1       -0.0822
     16 C          64.1527   91.3274   16.1031 C.ar    1  UNL1        0.0578
     17 C          64.9470   90.9717   14.8814 C.ar    1  UNL1        0.0129
     18 C          64.9755   89.5542   14.3918 C.ar    1  UNL1        0.0184
     19 C          64.2097   88.4923   15.1239 C.ar    1  UNL1        0.0641
     20 C          63.4154   88.8480   16.3456 C.ar    1  UNL1        0.0184
     21 C          63.3869   90.2656   16.8352 C.ar    1  UNL1        0.0129
     22 N          62.7192   82.6803   12.9642 N.ar    1  UNL1       -0.3019
     23 C          62.8987   81.4140   12.1806 C.ar    1  UNL1        0.0985
     24 C          62.4404   80.2704   13.0363 C.ar    1  UNL1        0.1193
     25 N          61.9777   80.8300   14.3488 N.ar    1  UNL1       -0.2223
     26 C          62.1500   82.3195   14.3042 C.ar    1  UNL1        0.1791
@<TRIPOS>BOND
     1    15    16    1
     2    16    17   ar
     3    17    18   ar
     4    18    19   ar
     5    19    10    1
     6    10    11   ar
     7    11    12   ar
     8    12    13   ar
     9    13     1    1
    10     1     2    1
    11     2     3   ar
    12     3     4   ar
    13     4     5   ar
    14     5     6    1
    15     5     7   ar
    16     7     8   ar
    17     8     9    1
    18     1    22    1
    19    22    23   ar
    20    23    24   ar
    21    24    25   ar
    22    25    26   ar
    23    13    14   ar
    24    19    20   ar
    25    20    21   ar
    26    21    16   ar
    27    14    10   ar
    28     8     2   ar
    29    26    22   ar
@<TRIPOS>MOLECULE
*****
 26 29 0 0 0
SMALL
GASTEIGER

@<TRIPOS>ATOM
      1 C          61.9688   89.3595   11.4221 C.3     1  UNL1        0.1344
      2 C          63.1062   90.3298   11.5435 C.ar    1  UNL1        0.0131
      3 C          63.5467   91.1225   10.3486 C.ar    1  UNL1       -0.0004
      4 C          64.6840   92.0927   10.4700 C.ar    1  UNL1        0.0112
      5 C          65.3810   92.2705   11.7863 C.ar    1  UNL1        0.0585
      6 CL         66.5185   93.2408   11.9077 Cl      1  UNL1       -0.0822
      7 C          64.9406   91.4778   12.9812 C.ar    1  UNL1        0.0225
      8 C          63.8032   90.5075   12.8598 C.ar    1  UNL1        0.0566
      9 CL         63.3627   89.7149   14.0546 Cl      1  UNL1       -0.0825
     10 N          62.7000   85.5480   11.3641 N.ar    1  UNL1       -0.3038
     11 C          62.6283   85.8518    9.8969 C.ar    1  UNL1        0.0799
     12 C          62.3457   87.3165    9.7400 C.ar    1  UNL1        0.0184
     13 C          62.2427   87.9181   11.1103 C.ar    1  UNL1        0.0215
     14 C          62.4617   86.8251   12.1140 C.ar    1  UNL1        0.0779
     15 CL         63.7548   80.1693   13.8047 Cl      1  UNL1       -0.0822
     16 C          63.4911   81.5139   13.1945 C.ar    1  UNL1        0.0578
     17 C          63.0680   81.6163   11.7591 C.ar    1  UNL1        0.0129
     18 C          62.8042   82.9610   11.1490 C.ar    1  UNL1        0.0184
     19 C          62.9637   84.2033   11.9742 C.ar    1  UNL1        0.0641
     20 C          63.3868   84.1010   13.4096 C.ar    1  UNL1        0.0184
     21 C          63.6505   82.7563   14.0198 C.ar    1  UNL1        0.0129
     22 N          60.5575   89.8306   11.6125 N.ar    1  UNL1       -0.3019
     23 C          59.4650   89.0808   12.3155 C.ar    1  UNL1        0.0985
     24 C          58.2232   89.9211   12.2708 C.ar    1  UNL1        0.1193
     25 N          58.5482   91.1901   11.5402 N.ar    1  UNL1       -0.2223
     26 C          59.9910   91.1342   11.1333 C.ar    1  UNL1        0.1791
@<TRIPOS>BOND
     1    15    16    1
     2    16    17   ar
     3    17    18   ar
     4    18    19   ar
     5    19    10    1
     6    10    11   ar
     7    11    12   ar
     8    12    13   ar
     9    13     1    1
    10     1     2    1
    11     2     3   ar
    12     3     4   ar
    13     4     5   ar
    14     5     6    1
    15     5     7   ar
    16     7     8   ar
    17     8     9    1
    18     1    22    1
    19    22    23   ar
    20    23    24   ar
    21    24    25   ar
    22    25    26   ar
    23    13    14   ar
    24    19    20   ar
    25    20    21   ar
    26    21    16   ar
    27    14    10   ar
    28     8     2   ar
    29    26    22   ar
@<TRIPOS>MOLECULE
*****
 26 29 0 0 0
SMALL
GASTEIGER

@<TRIPOS>ATOM
      1 C          62.8238   88.5713   11.9144 C.3     1  UNL1        0.1344
      2 C          61.8897   88.5776   10.7408 C.ar    1  UNL1        0.0131
      3 C          62.0874   87.6010    9.6196 C.ar    1  UNL1       -0.0004
      4 C          61.1534   87.6073    8.4460 C.ar    1  UNL1        0.0112
      5 C          60.0215   88.5902    8.3936 C.ar    1  UNL1        0.0585
      6 CL         59.0874   88.5966    7.2200 Cl      1  UNL1       -0.0822
      7 C          59.8238   89.5668    9.5148 C.ar    1  UNL1        0.0225
      8 C          60.7579   89.5605   10.6884 C.ar    1  UNL1        0.0566
      9 CL         60.5602   90.5371   11.8097 Cl      1  UNL1       -0.0825
     10 N          63.1868   84.9304   13.2096 N.ar    1  UNL1       -0.3038
     11 C          64.0561   85.6718   14.1816 C.ar    1  UNL1        0.0799
     12 C          64.0259   87.1259   13.8147 C.ar    1  UNL1        0.0184
     13 C          63.1380   87.2832   12.6160 C.ar    1  UNL1        0.0215
     14 C          62.6194   85.9263   12.2421 C.ar    1  UNL1        0.0779
     15 CL         62.1597   79.0189   13.1948 Cl      1  UNL1       -0.0822
     16 C          62.4165   80.4968   13.1985 C.ar    1  UNL1        0.0578
     17 C          62.0641   81.3162   14.4044 C.ar    1  UNL1        0.0129
     18 C          62.3209   82.7941   14.4081 C.ar    1  UNL1        0.0184
     19 C          62.9301   83.4525   13.2059 C.ar    1  UNL1        0.0641
     20 C          63.2825   82.6331   12.0000 C.ar    1  UNL1        0.0184
     21 C          63.0257   81.1552   11.9963 C.ar    1  UNL1        0.0129
     22 N          63.4438   89.8530   12.3865 N.ar    1  UNL1       -0.3019
     23 C          64.0695   90.9026   11.5166 C.ar    1  UNL1        0.0985
     24 C          64.5593   92.0084   12.4038 C.ar    1  UNL1        0.1193
     25 N          64.2362   91.6423   13.8221 N.ar    1  UNL1       -0.2223
     26 C          63.5468   90.3101   13.8114 C.ar    1  UNL1        0.1791
@<TRIPOS>BOND
     1    15    16    1
     2    16    17   ar
     3    17    18   ar
     4    18    19   ar
     5    19    10    1
     6    10    11   ar
     7    11    12   ar
     8    12    13   ar
     9    13     1    1
    10     1     2    1
    11     2     3   ar
    12     3     4   ar
    13     4     5   ar
    14     5     6    1
    15     5     7   ar
    16     7     8   ar
    17     8     9    1
    18     1    22    1
    19    22    23   ar
    20    23    24   ar
    21    24    25   ar
    22    25    26   ar
    23    13    14   ar
    24    19    20   ar
    25    20    21   ar
    26    21    16   ar
    27    14    10   ar
    28     8     2   ar
    29    26    22   ar
@<TRIPOS>MOLECULE
*****
 26 29 0 0 0
SMALL
GASTEIGER

@<TRIPOS>ATOM
      1 C          62.7068   87.4788   11.9314 C.3     1  UNL1        0.1344
      2 C          61.7938   87.2310   10.7673 C.ar    1  UNL1        0.0131
      3 C          62.2898   86.4696    9.5739 C.ar    1  UNL1       -0.0004
      4 C          61.3768   86.2218    8.4100 C.ar    1  UNL1        0.0112
      5 C          59.9677   86.7353    8.4394 C.ar    1  UNL1        0.0585
      6 CL         59.0547   86.4874    7.2753 Cl      1  UNL1       -0.0822
      7 C          59.4717   87.4966    9.6328 C.ar    1  UNL1        0.0225
      8 C          60.3848   87.7445   10.7968 C.ar    1  UNL1        0.0566
      9 CL         59.8888   88.5058   11.9902 Cl      1  UNL1       -0.0825
     10 N          64.5460   90.6965   13.0843 N.ar    1  UNL1       -0.3038
     11 C          63.6309   91.2473   12.0312 C.ar    1  UNL1        0.0799
     12 C          62.8305   90.1090   11.4711 C.ar    1  UNL1        0.0184
     13 C          63.2510   88.8547   12.1781 C.ar    1  UNL1        0.0215
     14 C          64.3112   89.2178   13.1751 C.ar    1  UNL1        0.0779
     15 CL         68.4587   93.8538   16.3589 Cl      1  UNL1       -0.0822
     16 C          67.4805   93.0645   15.5402 C.ar    1  UNL1        0.0578
     17 C          67.7642   92.7882   14.0935 C.ar    1  UNL1        0.0129
     18 C          66.7860   91.9989   13.2748 C.ar    1  UNL1        0.0184
     19 C          65.5242   91.4858   13.9030 C.ar    1  UNL1        0.0641
     20 C          65.2406   91.7621   15.3497 C.ar    1  UNL1        0.0184
     21 C          66.2187   92.5514   16.1684 C.ar    1  UNL1        0.0129
     22 N          63.0757   86.3508   12.8487 N.ar    1  UNL1       -0.3019
     23 C          63.9284   86.4571   14.0782 C.ar    1  UNL1        0.0985
     24 C          64.0364   85.0904   14.6869 C.ar    1  UNL1        0.1193
     25 N          63.2504   84.1395   13.8337 N.ar    1  UNL1       -0.2223
     26 C          62.6566   84.9185   12.6976 C.ar    1  UNL1        0.1791
@<TRIPOS>BOND
     1    15    16    1
     2    16    17   ar
     3    17    18   ar
     4    18    19   ar
     5    19    10    1
     6    10    11   ar
     7    11    12   ar
     8    12    13   ar
     9    13     1    1
    10     1     2    1
    11     2     3   ar
    12     3     4   ar
    13     4     5   ar
    14     5     6    1
    15     5     7   ar
    16     7     8   ar
    17     8     9    1
    18     1    22    1
    19    22    23   ar
    20    23    24   ar
    21    24    25   ar
    22    25    26   ar
    23    13    14   ar
    24    19    20   ar
    25    20    21   ar
    26    21    16   ar
    27    14    10   ar
    28     8     2   ar
    29    26    22   ar
