@<TRIPOS>MOLECULE
*****
 37 40 0 0 0
SMALL
GASTEIGER

@<TRIPOS>ATOM
      1 C          64.5574   91.4642   13.4421 C.3     1  UNL1        0.0725
      2 C          64.3083   90.0206   13.1193 C.3     1  UNL1        0.0239
      3 C          63.9535   89.0578   14.2135 C.3     1  UNL1        0.0237
      4 C          63.8479   89.5386   15.6305 C.2     1  UNL1       -0.0441
      5 C          63.4932   88.5759   16.7246 C.2     1  UNL1       -0.0084
      6 C          64.0970   90.9822   15.9532 C.3     1  UNL1        0.0237
      7 C          64.4517   91.9449   14.8590 C.3     1  UNL1        0.0239
      8 C          63.2441   87.1323   16.4019 C.ar    1  UNL1        0.0024
      9 C          62.3592   86.3074   17.2887 C.ar    1  UNL1        0.0002
     10 C          62.1101   84.8638   16.9659 C.ar    1  UNL1        0.0031
     11 C          62.7459   84.2452   15.7563 C.ar    1  UNL1        0.0376
     12 C          63.6308   85.0703   14.8694 C.ar    1  UNL1        0.1472
     13 C          63.8799   86.5138   15.1922 C.ar    1  UNL1        0.0375
     14 O          64.2666   84.4517   13.6598 O.3     1  UNL1       -0.4361
     15 C          63.6804   84.6900   12.2998 C.ar    1  UNL1        0.2297
     16 C          64.1012   83.8351   11.1414 C.ar    1  UNL1        0.0581
     17 C          63.5150   84.0735    9.7814 C.ar    1  UNL1        0.0102
     18 C          62.5080   85.1668    9.5799 C.ar    1  UNL1        0.0907
     19 C          62.0872   86.0217   10.7383 C.ar    1  UNL1        0.1059
     20 N          62.6734   85.7833   12.0982 N.ar    1  UNL1       -0.2099
     21 C          61.9218   85.4051    8.2198 C.3     1  UNL1        0.4200
     22 F          61.3357   85.6434    6.8598 F       1  UNL1       -0.1658
     23 F          60.6953   85.9936    8.8516 F       1  UNL1       -0.1658
     24 F          63.1484   84.8166    7.5881 F       1  UNL1       -0.1658
     25 C          66.3212   92.9233   12.2132 C.2     1  UNL1        0.2488
     26 O          67.3755   92.4568   13.1728 O.2     1  UNL1       -0.2700
     27 N          64.9121   92.4269   12.3479 N.am    1  UNL1       -0.3024
     28 H          64.2201   92.7331   11.7181 H       1  UNL1        0.1497
     29 N          67.7401   96.7743    7.8365 N.pl3   1  UNL1       -0.3274
     30 C          67.3854   95.8115    8.9307 C.ar    1  UNL1        0.2137
     31 N          66.6938   96.3035   10.1675 N.ar    1  UNL1       -0.2123
     32 C          66.3391   95.3407   11.2617 C.ar    1  UNL1        0.1079
     33 C          66.6759   93.8860   11.1191 C.ar    1  UNL1        0.0917
     34 C          67.3674   93.3941    9.8823 C.ar    1  UNL1        0.1079
     35 N          67.7222   94.3569    8.7881 N.ar    1  UNL1       -0.2123
     36 H          67.5190   97.7291    7.9301 H       1  UNL1        0.1452
     37 H          68.1940   96.4514    7.0247 H       1  UNL1        0.1452
@<TRIPOS>BOND
     1    29    30    1
     2    30    31   ar
     3    31    32   ar
     4    32    33   ar
     5    33    25    1
     6    25    26    2
     7    25    27   am
     8    27     1    1
     9     1     2    1
    10     2     3    1
    11     3     4    1
    12     4     5    2
    13     5     8    1
    14     8     9   ar
    15     9    10   ar
    16    10    11   ar
    17    11    12   ar
    18    12    14    1
    19    14    15    1
    20    15    16   ar
    21    16    17   ar
    22    17    18   ar
    23    18    21    1
    24    21    22    1
    25    21    23    1
    26    21    24    1
    27    18    19   ar
    28    19    20   ar
    29    12    13   ar
    30     4     6    1
    31     6     7    1
    32    33    34   ar
    33    34    35   ar
    34    35    30   ar
    35     7     1    1
    36    13     8   ar
    37    20    15   ar
    38    29    36    1
    39    29    37    1
    40    27    28    1
@<TRIPOS>MOLECULE
*****
 37 40 0 0 0
SMALL
GASTEIGER

@<TRIPOS>ATOM
      1 C          63.6483   84.4289   14.0955 C.3     1  UNL1        0.0725
      2 C          63.8309   85.5282   13.0914 C.3     1  UNL1        0.0239
      3 C          63.9582   86.9503   13.5511 C.3     1  UNL1        0.0237
      4 C          63.9030   87.2731   15.0150 C.2     1  UNL1       -0.0441
      5 C          64.0303   88.6953   15.4747 C.2     1  UNL1       -0.0084
      6 C          63.7204   86.1738   16.0190 C.3     1  UNL1        0.0237
      7 C          63.5931   84.7517   15.5593 C.3     1  UNL1        0.0239
      8 C          64.2129   89.7946   14.4705 C.ar    1  UNL1        0.0024
      9 C          65.4064   90.6989   14.5572 C.ar    1  UNL1        0.0002
     10 C          65.5890   91.7983   13.5531 C.ar    1  UNL1        0.0031
     11 C          64.5780   91.9931   12.4622 C.ar    1  UNL1        0.0376
     12 C          63.3845   91.0887   12.3755 C.ar    1  UNL1        0.1472
     13 C          63.2019   89.9894   13.3797 C.ar    1  UNL1        0.0375
     14 O          62.3735   91.2835   11.2847 O.3     1  UNL1       -0.4361
     15 C          61.8539   90.1000   10.5235 C.ar    1  UNL1        0.2297
     16 C          62.6613   88.8376   10.4573 C.ar    1  UNL1        0.0581
     17 C          62.1417   87.6541    9.6961 C.ar    1  UNL1        0.0102
     18 C          60.8148   87.7331    9.0011 C.ar    1  UNL1        0.0907
     19 C          60.0074   88.9955    9.0673 C.ar    1  UNL1        0.1059
     20 N          60.5270   90.1790    9.8285 N.ar    1  UNL1       -0.2099
     21 C          60.2952   86.5496    8.2399 C.3     1  UNL1        0.4200
     22 F          59.7757   85.3661    7.4787 F       1  UNL1       -0.1658
     23 F          58.8890   87.0161    8.4741 F       1  UNL1       -0.1658
     24 F          61.7014   86.0830    8.0057 F       1  UNL1       -0.1658
     25 C          63.0882   82.7085   12.2309 C.2     1  UNL1        0.2488
     26 O          62.7828   83.8325   11.2858 O.2     1  UNL1       -0.2700
     27 N          63.5210   83.0067   13.6358 N.am    1  UNL1       -0.3024
     28 H          63.7215   82.2690   14.2562 H       1  UNL1        0.1497
     29 N          62.5790   77.0200   10.3921 N.pl3   1  UNL1       -0.3274
     30 C          62.7063   78.4422   10.8518 C.ar    1  UNL1        0.2137
     31 N          63.0323   79.5232    9.8644 N.ar    1  UNL1       -0.2123
     32 C          63.1597   80.9453   10.3241 C.ar    1  UNL1        0.1079
     33 C          62.9609   81.2864   11.7712 C.ar    1  UNL1        0.0917
     34 C          62.6349   80.2054   12.7586 C.ar    1  UNL1        0.1079
     35 N          62.5075   78.7832   12.2989 N.ar    1  UNL1       -0.2123
     36 H          62.7094   76.7962    9.4423 H       1  UNL1        0.1452
     37 H          62.3649   76.3105   11.0402 H       1  UNL1        0.1452
@<TRIPOS>BOND
     1    29    30    1
     2    30    31   ar
     3    31    32   ar
     4    32    33   ar
     5    33    25    1
     6    25    26    2
     7    25    27   am
     8    27     1    1
     9     1     2    1
    10     2     3    1
    11     3     4    1
    12     4     5    2
    13     5     8    1
    14     8     9   ar
    15     9    10   ar
    16    10    11   ar
    17    11    12   ar
    18    12    14    1
    19    14    15    1
    20    15    16   ar
    21    16    17   ar
    22    17    18   ar
    23    18    21    1
    24    21    22    1
    25    21    23    1
    26    21    24    1
    27    18    19   ar
    28    19    20   ar
    29    12    13   ar
    30     4     6    1
    31     6     7    1
    32    33    34   ar
    33    34    35   ar
    34    35    30   ar
    35     7     1    1
    36    13     8   ar
    37    20    15   ar
    38    29    36    1
    39    29    37    1
    40    27    28    1
@<TRIPOS>MOLECULE
*****
 37 40 0 0 0
SMALL
GASTEIGER

@<TRIPOS>ATOM
      1 C          62.0902   86.4476   11.1035 C.3     1  UNL1        0.0725
      2 C          63.0621   87.2730   11.8936 C.3     1  UNL1        0.0239
      3 C          63.2766   88.7163   11.5459 C.3     1  UNL1        0.0237
      4 C          62.5192   89.3342   10.4081 C.2     1  UNL1       -0.0441
      5 C          62.7338   90.7775   10.0603 C.2     1  UNL1       -0.0084
      6 C          61.5474   88.5088    9.6180 C.3     1  UNL1        0.0237
      7 C          61.3329   87.0655    9.9657 C.3     1  UNL1        0.0239
      8 C          63.7057   91.6029   10.8504 C.ar    1  UNL1        0.0024
      9 C          64.5528   92.6299   10.1594 C.ar    1  UNL1        0.0002
     10 C          65.5247   93.4553   10.9496 C.ar    1  UNL1        0.0031
     11 C          65.6494   93.2536   12.4307 C.ar    1  UNL1        0.0376
     12 C          64.8022   92.2265   13.1217 C.ar    1  UNL1        0.1472
     13 C          63.8304   91.4012   12.3316 C.ar    1  UNL1        0.0375
     14 O          64.9269   92.0248   14.6028 O.3     1  UNL1       -0.4361
     15 C          64.4354   90.7542   15.2307 C.ar    1  UNL1        0.2297
     16 C          64.8067   89.4296   14.6329 C.ar    1  UNL1        0.0581
     17 C          64.3151   88.1592   15.2608 C.ar    1  UNL1        0.0102
     18 C          63.4522   88.2134   16.4866 C.ar    1  UNL1        0.0907
     19 C          63.0809   89.5380   17.0844 C.ar    1  UNL1        0.1059
     20 N          63.5725   90.8084   16.4565 N.ar    1  UNL1       -0.2099
     21 C          62.9607   86.9428   17.1145 C.3     1  UNL1        0.4200
     22 F          62.4691   85.6724   17.7424 F       1  UNL1       -0.1658
     23 F          63.1730   86.2197   15.8176 F       1  UNL1       -0.1658
     24 F          62.7484   87.6660   18.4114 F       1  UNL1       -0.1658
     25 C          62.7953   84.3216   12.4198 C.2     1  UNL1        0.2488
     26 O          63.9293   85.0821   13.0407 O.2     1  UNL1       -0.2700
     27 N          61.8757   85.0043   11.4512 N.am    1  UNL1       -0.3024
     28 H          61.1314   84.5052   11.0437 H       1  UNL1        0.1497
     29 N          61.9373   78.5484   13.8108 N.pl3   1  UNL1       -0.3274
     30 C          62.1518   79.9917   13.4630 C.ar    1  UNL1        0.2137
     31 N          61.8301   81.0604   14.4651 N.ar    1  UNL1       -0.2123
     32 C          62.0446   82.5037   14.1174 C.ar    1  UNL1        0.1079
     33 C          62.5808   82.8783   12.7676 C.ar    1  UNL1        0.0917
     34 C          62.9025   81.8096   11.7654 C.ar    1  UNL1        0.1079
     35 N          62.6880   80.3663   12.1132 N.ar    1  UNL1       -0.2123
     36 H          61.5853   78.3026   14.6967 H       1  UNL1        0.1452
     37 H          62.1484   77.8470   13.1530 H       1  UNL1        0.1452
@<TRIPOS>BOND
     1    29    30    1
     2    30    31   ar
     3    31    32   ar
     4    32    33   ar
     5    33    25    1
     6    25    26    2
     7    25    27   am
     8    27     1    1
     9     1     2    1
    10     2     3    1
    11     3     4    1
    12     4     5    2
    13     5     8    1
    14     8     9   ar
    15     9    10   ar
    16    10    11   ar
    17    11    12   ar
    18    12    14    1
    19    14    15    1
    20    15    16   ar
    21    16    17   ar
    22    17    18   ar
    23    18    21    1
    24    21    22    1
    25    21    23    1
    26    21    24    1
    27    18    19   ar
    28    19    20   ar
    29    12    13   ar
    30     4     6    1
    31     6     7    1
    32    33    34   ar
    33    34    35   ar
    34    35    30   ar
    35     7     1    1
    36    13     8   ar
    37    20    15   ar
    38    29    36    1
    39    29    37    1
    40    27    28    1
@<TRIPOS>MOLECULE
*****
 37 40 0 0 0
SMALL
GASTEIGER

@<TRIPOS>ATOM
      1 C          64.5299   90.6600   13.3319 C.3     1  UNL1        0.0725
      2 C          64.1973   89.3092   12.7707 C.3     1  UNL1        0.0239
      3 C          63.8689   88.1736   13.6940 C.3     1  UNL1        0.0237
      4 C          63.8732   88.3887   15.1785 C.2     1  UNL1       -0.0441
      5 C          63.5448   87.2531   16.1019 C.2     1  UNL1       -0.0084
      6 C          64.2058   89.7394   15.7397 C.3     1  UNL1        0.0237
      7 C          64.5341   90.8751   14.8163 C.3     1  UNL1        0.0239
      8 C          63.2122   85.9023   15.5407 C.ar    1  UNL1        0.0024
      9 C          62.7999   84.7897   16.4583 C.ar    1  UNL1        0.0002
     10 C          62.4673   83.4390   15.8971 C.ar    1  UNL1        0.0031
     11 C          62.5471   83.2009   14.4183 C.ar    1  UNL1        0.0376
     12 C          62.9594   84.3136   13.5006 C.ar    1  UNL1        0.1472
     13 C          63.2920   85.6642   14.0618 C.ar    1  UNL1        0.0375
     14 O          63.0392   84.0755   12.0218 O.3     1  UNL1       -0.4361
     15 C          62.3662   85.0220   11.0724 C.ar    1  UNL1        0.2297
     16 C          62.6937   84.9759    9.6093 C.ar    1  UNL1        0.0581
     17 C          62.0207   85.9224    8.6600 C.ar    1  UNL1        0.0102
     18 C          61.0203   86.9150    9.1737 C.ar    1  UNL1        0.0907
     19 C          60.6928   86.9611   10.6368 C.ar    1  UNL1        0.1059
     20 N          61.3658   86.0146   11.5861 N.ar    1  UNL1       -0.2099
     21 C          60.3474   87.8615    8.2243 C.3     1  UNL1        0.4200
     22 F          59.6744   88.8080    7.2750 F       1  UNL1       -0.1658
     23 F          60.1520   86.7414    7.2460 F       1  UNL1       -0.1658
     24 F          60.5427   88.9816    9.2026 F       1  UNL1       -0.1658
     25 C          66.2643   92.3113   12.3245 C.2     1  UNL1        0.2488
     26 O          67.3419   91.6915   13.1637 O.2     1  UNL1       -0.2700
     27 N          64.8583   91.7956   12.4085 N.am    1  UNL1       -0.3024
     28 H          64.1509   92.2024   11.8577 H       1  UNL1        0.1497
     29 N          67.5777   96.8538    8.6311 N.pl3   1  UNL1       -0.3274
     30 C          67.2493   95.7182    9.5545 C.ar    1  UNL1        0.2137
     31 N          67.7414   94.3351    9.2467 N.ar    1  UNL1       -0.2123
     32 C          67.4130   93.1994   10.1700 C.ar    1  UNL1        0.1079
     33 C          66.5926   93.4470   11.4011 C.ar    1  UNL1        0.0917
     34 C          66.1006   94.8301   11.7089 C.ar    1  UNL1        0.1079
     35 N          66.4289   95.9657   10.7856 N.ar    1  UNL1       -0.2123
     36 H          68.1161   96.6913    7.8231 H       1  UNL1        0.1452
     37 H          67.2547   97.7616    8.8331 H       1  UNL1        0.1452
@<TRIPOS>BOND
     1    29    30    1
     2    30    31   ar
     3    31    32   ar
     4    32    33   ar
     5    33    25    1
     6    25    26    2
     7    25    27   am
     8    27     1    1
     9     1     2    1
    10     2     3    1
    11     3     4    1
    12     4     5    2
    13     5     8    1
    14     8     9   ar
    15     9    10   ar
    16    10    11   ar
    17    11    12   ar
    18    12    14    1
    19    14    15    1
    20    15    16   ar
    21    16    17   ar
    22    17    18   ar
    23    18    21    1
    24    21    22    1
    25    21    23    1
    26    21    24    1
    27    18    19   ar
    28    19    20   ar
    29    12    13   ar
    30     4     6    1
    31     6     7    1
    32    33    34   ar
    33    34    35   ar
    34    35    30   ar
    35     7     1    1
    36    13     8   ar
    37    20    15   ar
    38    29    36    1
    39    29    37    1
    40    27    28    1
@<TRIPOS>MOLECULE
*****
 37 40 0 0 0
SMALL
GASTEIGER

@<TRIPOS>ATOM
      1 C          65.1063   91.7263   14.1578 C.3     1  UNL1        0.0725
      2 C          65.0542   90.2873   13.7374 C.3     1  UNL1        0.0239
      3 C          64.4228   89.2658   14.6361 C.3     1  UNL1        0.0237
      4 C          63.8434   89.6832   15.9553 C.2     1  UNL1       -0.0441
      5 C          63.2120   88.6617   16.8541 C.2     1  UNL1       -0.0084
      6 C          63.8956   91.1221   16.3757 C.3     1  UNL1        0.0237
      7 C          64.5270   92.1437   15.4770 C.3     1  UNL1        0.0239
      8 C          63.1599   87.2227   16.4336 C.ar    1  UNL1        0.0024
      9 C          62.5550   86.1964   17.3451 C.ar    1  UNL1        0.0002
     10 C          62.5029   84.7575   16.9246 C.ar    1  UNL1        0.0031
     11 C          63.0557   84.3448   15.5927 C.ar    1  UNL1        0.0376
     12 C          63.6607   85.3712   14.6812 C.ar    1  UNL1        0.1472
     13 C          63.7127   86.8100   15.1017 C.ar    1  UNL1        0.0375
     14 O          64.2135   84.9585   13.3492 O.3     1  UNL1       -0.4361
     15 C          63.8500   83.6248   12.7669 C.ar    1  UNL1        0.2297
     16 C          64.3667   83.2306   11.4151 C.ar    1  UNL1        0.0581
     17 C          64.0032   81.8969   10.8329 C.ar    1  UNL1        0.0102
     18 C          63.1229   80.9574   11.6025 C.ar    1  UNL1        0.0907
     19 C          62.6061   81.3515   12.9543 C.ar    1  UNL1        0.1059
     20 N          62.9696   82.6852   13.5365 N.ar    1  UNL1       -0.2099
     21 C          62.7594   79.6236   11.0201 C.3     1  UNL1        0.4200
     22 F          62.3959   78.2899   10.4378 F       1  UNL1       -0.1658
     23 F          62.1871   79.2027   12.3412 F       1  UNL1       -0.1658
     24 F          63.3316   80.0445    9.6990 F       1  UNL1       -0.1658
     25 C          65.4502   92.7317   11.7870 C.2     1  UNL1        0.2488
     26 O          64.5313   91.6940   11.2137 O.2     1  UNL1       -0.2700
     27 N          65.7377   92.7478   13.2591 N.am    1  UNL1       -0.3024
     28 H          66.3408   93.4289   13.6354 H       1  UNL1        0.1497
     29 N          67.9759   96.8179    8.1920 N.pl3   1  UNL1       -0.3274
     30 C          67.3445   95.7964    9.0908 C.ar    1  UNL1        0.2137
     31 N          67.5786   94.3351    8.8461 N.ar    1  UNL1       -0.2123
     32 C          66.9472   93.3136    9.7449 C.ar    1  UNL1        0.1079
     33 C          66.0816   93.7533   10.8883 C.ar    1  UNL1        0.0917
     34 C          65.8475   95.2145   11.1330 C.ar    1  UNL1        0.1079
     35 N          66.4789   96.2361   10.2342 N.ar    1  UNL1       -0.2123
     36 H          68.5440   96.5293    7.4416 H       1  UNL1        0.1452
     37 H          67.8222   97.7770    8.3526 H       1  UNL1        0.1452
@<TRIPOS>BOND
     1    29    30    1
     2    30    31   ar
     3    31    32   ar
     4    32    33   ar
     5    33    25    1
     6    25    26    2
     7    25    27   am
     8    27     1    1
     9     1     2    1
    10     2     3    1
    11     3     4    1
    12     4     5    2
    13     5     8    1
    14     8     9   ar
    15     9    10   ar
    16    10    11   ar
    17    11    12   ar
    18    12    14    1
    19    14    15    1
    20    15    16   ar
    21    16    17   ar
    22    17    18   ar
    23    18    21    1
    24    21    22    1
    25    21    23    1
    26    21    24    1
    27    18    19   ar
    28    19    20   ar
    29    12    13   ar
    30     4     6    1
    31     6     7    1
    32    33    34   ar
    33    34    35   ar
    34    35    30   ar
    35     7     1    1
    36    13     8   ar
    37    20    15   ar
    38    29    36    1
    39    29    37    1
    40    27    28    1
@<TRIPOS>MOLECULE
*****
 37 40 0 0 0
SMALL
GASTEIGER

@<TRIPOS>ATOM
      1 C          62.8775   90.7589   11.6690 C.3     1  UNL1        0.0725
      2 C          63.2995   89.5925   10.8255 C.3     1  UNL1        0.0239
      3 C          62.2679   88.7748   10.1064 C.3     1  UNL1        0.0237
      4 C          60.8143   89.1235   10.2308 C.2     1  UNL1       -0.0441
      5 C          59.7827   88.3058    9.5117 C.2     1  UNL1       -0.0084
      6 C          60.3923   90.2898   11.0743 C.3     1  UNL1        0.0237
      7 C          61.4239   91.1075   11.7934 C.3     1  UNL1        0.0239
      8 C          60.2047   87.1394    8.6681 C.ar    1  UNL1        0.0024
      9 C          59.3858   86.7403    7.4765 C.ar    1  UNL1        0.0002
     10 C          59.8078   85.5739    6.6329 C.ar    1  UNL1        0.0031
     11 C          61.0488   84.8067    6.9811 C.ar    1  UNL1        0.0376
     12 C          61.8678   85.2058    8.1728 C.ar    1  UNL1        0.1472
     13 C          61.4457   86.3721    9.0163 C.ar    1  UNL1        0.0375
     14 O          63.1087   84.4385    8.5210 O.3     1  UNL1       -0.4361
     15 C          63.4178   84.1227    9.9545 C.ar    1  UNL1        0.2297
     16 C          64.2926   82.9521   10.2928 C.ar    1  UNL1        0.0581
     17 C          64.6016   82.6363   11.7263 C.ar    1  UNL1        0.0102
     18 C          64.0359   83.4912   12.8214 C.ar    1  UNL1        0.0907
     19 C          63.1611   84.6617   12.4830 C.ar    1  UNL1        0.1059
     20 N          62.8521   84.9775   11.0496 N.ar    1  UNL1       -0.2099
     21 C          64.3450   83.1753   14.2549 C.3     1  UNL1        0.4200
     22 F          64.6540   82.8595   15.6883 F       1  UNL1       -0.1658
     23 F          65.3795   84.2613   14.2711 F       1  UNL1       -0.1658
     24 F          63.3104   82.0894   14.2386 F       1  UNL1       -0.1658
     25 C          64.7071   90.9661   13.5019 C.2     1  UNL1        0.2488
     26 O          64.4735   89.5380   13.8965 O.2     1  UNL1       -0.2700
     27 N          63.9091   91.5766   12.3882 N.am    1  UNL1       -0.3024
     28 H          64.0624   92.5140   12.1292 H       1  UNL1        0.1497
     29 N          68.8335   94.2370   16.3784 N.pl3   1  UNL1       -0.3274
     30 C          67.8019   93.4193   15.6593 C.ar    1  UNL1        0.2137
     31 N          67.9761   93.1044   14.2031 N.ar    1  UNL1       -0.2123
     32 C          66.9445   92.2867   13.4840 C.ar    1  UNL1        0.1079
     33 C          65.7387   91.7838   14.2211 C.ar    1  UNL1        0.0917
     34 C          65.5646   92.0987   15.6772 C.ar    1  UNL1        0.1079
     35 N          66.5962   92.9164   16.3964 N.ar    1  UNL1       -0.2123
     36 H          69.6249   94.5670   15.8947 H       1  UNL1        0.1452
     37 H          68.7192   94.4436   17.3342 H       1  UNL1        0.1452
@<TRIPOS>BOND
     1    29    30    1
     2    30    31   ar
     3    31    32   ar
     4    32    33   ar
     5    33    25    1
     6    25    26    2
     7    25    27   am
     8    27     1    1
     9     1     2    1
    10     2     3    1
    11     3     4    1
    12     4     5    2
    13     5     8    1
    14     8     9   ar
    15     9    10   ar
    16    10    11   ar
    17    11    12   ar
    18    12    14    1
    19    14    15    1
    20    15    16   ar
    21    16    17   ar
    22    17    18   ar
    23    18    21    1
    24    21    22    1
    25    21    23    1
    26    21    24    1
    27    18    19   ar
    28    19    20   ar
    29    12    13   ar
    30     4     6    1
    31     6     7    1
    32    33    34   ar
    33    34    35   ar
    34    35    30   ar
    35     7     1    1
    36    13     8   ar
    37    20    15   ar
    38    29    36    1
    39    29    37    1
    40    27    28    1
@<TRIPOS>MOLECULE
*****
 37 40 0 0 0
SMALL
GASTEIGER

@<TRIPOS>ATOM
      1 C          62.3639   85.6750   11.3019 C.3     1  UNL1        0.0725
      2 C          63.3823   86.2000   12.2701 C.3     1  UNL1        0.0239
      3 C          63.4003   87.6579   12.6226 C.3     1  UNL1        0.0237
      4 C          62.3999   88.5908   12.0069 C.2     1  UNL1       -0.0441
      5 C          62.4180   90.0487   12.3594 C.2     1  UNL1       -0.0084
      6 C          61.3816   88.0658   11.0387 C.3     1  UNL1        0.0237
      7 C          61.3636   86.6079   10.6863 C.3     1  UNL1        0.0239
      8 C          63.4364   90.5737   13.3275 C.ar    1  UNL1        0.0024
      9 C          63.2112   90.4312   14.8036 C.ar    1  UNL1        0.0002
     10 C          64.2297   90.9562   15.7718 C.ar    1  UNL1        0.0031
     11 C          65.4732   91.6236   15.2638 C.ar    1  UNL1        0.0376
     12 C          65.6983   91.7661   13.7876 C.ar    1  UNL1        0.1472
     13 C          64.6799   91.2411   12.8195 C.ar    1  UNL1        0.0375
     14 O          66.9419   92.4336   13.2796 O.3     1  UNL1       -0.4361
     15 C          66.8775   93.3181   12.0697 C.ar    1  UNL1        0.2297
     16 C          66.2008   94.6541   12.1526 C.ar    1  UNL1        0.0581
     17 C          66.1365   95.5386   10.9428 C.ar    1  UNL1        0.0102
     18 C          66.7489   95.0869    9.6502 C.ar    1  UNL1        0.0907
     19 C          67.4257   93.7508    9.5673 C.ar    1  UNL1        0.1059
     20 N          67.4900   92.8664   10.7771 N.ar    1  UNL1       -0.2099
     21 C          66.6846   95.9714    8.4404 C.3     1  UNL1        0.4200
     22 F          66.6203   96.8559    7.2306 F       1  UNL1       -0.1658
     23 F          67.7944   95.1858    7.8070 F       1  UNL1       -0.1658
     24 F          65.5749   96.7570    9.0738 F       1  UNL1       -0.1658
     25 C          62.8448   83.2013   11.9338 C.2     1  UNL1        0.2488
     26 O          63.3617   83.6433   13.2707 O.2     1  UNL1       -0.2700
     27 N          62.3459   84.2172   10.9494 N.am    1  UNL1       -0.3024
     28 H          62.0066   83.9270   10.0719 H       1  UNL1        0.1497
     29 N          62.7726   77.3698   10.5238 N.pl3   1  UNL1       -0.3274
     30 C          62.7907   78.8277   10.8763 C.ar    1  UNL1        0.2137
     31 N          63.0676   79.8522    9.8163 N.ar    1  UNL1       -0.2123
     32 C          63.0856   81.3101   10.1688 C.ar    1  UNL1        0.1079
     33 C          62.8267   81.7434   11.5813 C.ar    1  UNL1        0.0917
     34 C          62.5498   80.7189   12.6413 C.ar    1  UNL1        0.1079
     35 N          62.5318   79.2610   12.2888 N.ar    1  UNL1       -0.2123
     36 H          62.9425   77.0853    9.5968 H       1  UNL1        0.1452
     37 H          62.5909   76.6973   11.2196 H       1  UNL1        0.1452
@<TRIPOS>BOND
     1    29    30    1
     2    30    31   ar
     3    31    32   ar
     4    32    33   ar
     5    33    25    1
     6    25    26    2
     7    25    27   am
     8    27     1    1
     9     1     2    1
    10     2     3    1
    11     3     4    1
    12     4     5    2
    13     5     8    1
    14     8     9   ar
    15     9    10   ar
    16    10    11   ar
    17    11    12   ar
    18    12    14    1
    19    14    15    1
    20    15    16   ar
    21    16    17   ar
    22    17    18   ar
    23    18    21    1
    24    21    22    1
    25    21    23    1
    26    21    24    1
    27    18    19   ar
    28    19    20   ar
    29    12    13   ar
    30     4     6    1
    31     6     7    1
    32    33    34   ar
    33    34    35   ar
    34    35    30   ar
    35     7     1    1
    36    13     8   ar
    37    20    15   ar
    38    29    36    1
    39    29    37    1
    40    27    28    1
@<TRIPOS>MOLECULE
*****
 37 40 0 0 0
SMALL
GASTEIGER

@<TRIPOS>ATOM
      1 C          64.1999   87.5254   15.1536 C.3     1  UNL1        0.0725
      2 C          64.2640   86.5866   13.9855 C.3     1  UNL1        0.0239
      3 C          63.7108   85.1977   14.1083 C.3     1  UNL1        0.0237
      4 C          63.0933   84.7478   15.3992 C.2     1  UNL1       -0.0441
      5 C          62.5401   83.3590   15.5220 C.2     1  UNL1       -0.0084
      6 C          63.0292   85.6867   16.5672 C.3     1  UNL1        0.0237
      7 C          63.5825   87.0755   16.4444 C.3     1  UNL1        0.0239
      8 C          62.6042   82.4201   14.3539 C.ar    1  UNL1        0.0024
      9 C          62.3832   80.9508   14.5595 C.ar    1  UNL1        0.0002
     10 C          62.4473   80.0119   13.3914 C.ar    1  UNL1        0.0031
     11 C          62.7326   80.5424   12.0176 C.ar    1  UNL1        0.0376
     12 C          62.9536   82.0118   11.8120 C.ar    1  UNL1        0.1472
     13 C          62.8895   82.9506   12.9801 C.ar    1  UNL1        0.0375
     14 O          63.2389   82.5422   10.4382 O.3     1  UNL1       -0.4361
     15 C          62.7767   83.9166   10.0541 C.ar    1  UNL1        0.2297
     16 C          63.1501   84.4873    8.7181 C.ar    1  UNL1        0.0581
     17 C          62.6879   85.8617    8.3340 C.ar    1  UNL1        0.0102
     18 C          61.8525   86.6653    9.2859 C.ar    1  UNL1        0.0907
     19 C          61.4791   86.0947   10.6219 C.ar    1  UNL1        0.1059
     20 N          61.9413   84.7203   11.0060 N.ar    1  UNL1       -0.2099
     21 C          61.3903   88.0397    8.9018 C.3     1  UNL1        0.4200
     22 F          60.9282   89.4141    8.5177 F       1  UNL1       -0.1658
     23 F          60.3459   87.4389    8.0085 F       1  UNL1       -0.1658
     24 F          62.4348   88.6406    9.7951 F       1  UNL1       -0.1658
     25 C          64.4804   89.7239   13.7979 C.2     1  UNL1        0.2488
     26 O          63.6545   89.1448   12.6878 O.2     1  UNL1       -0.2700
     27 N          64.7531   88.9143   15.0308 N.am    1  UNL1       -0.3024
     28 H          65.2952   89.2944   15.7594 H       1  UNL1        0.1497
     29 N          66.6935   95.2792   13.3067 N.pl3   1  UNL1       -0.3274
     30 C          66.1402   93.8904   13.4295 C.ar    1  UNL1        0.2137
     31 N          66.1821   93.1804   14.7502 N.ar    1  UNL1       -0.2123
     32 C          65.6288   91.7916   14.8730 C.ar    1  UNL1        0.1079
     33 C          65.0337   91.1127   13.6751 C.ar    1  UNL1        0.0917
     34 C          64.9918   91.8227   12.3545 C.ar    1  UNL1        0.1079
     35 N          65.5451   93.2115   12.2317 N.ar    1  UNL1       -0.2123
     36 H          67.0841   95.7248   14.0929 H       1  UNL1        0.1452
     37 H          66.6660   95.7452   12.4399 H       1  UNL1        0.1452
@<TRIPOS>BOND
     1    29    30    1
     2    30    31   ar
     3    31    32   ar
     4    32    33   ar
     5    33    25    1
     6    25    26    2
     7    25    27   am
     8    27     1    1
     9     1     2    1
    10     2     3    1
    11     3     4    1
    12     4     5    2
    13     5     8    1
    14     8     9   ar
    15     9    10   ar
    16    10    11   ar
    17    11    12   ar
    18    12    14    1
    19    14    15    1
    20    15    16   ar
    21    16    17   ar
    22    17    18   ar
    23    18    21    1
    24    21    22    1
    25    21    23    1
    26    21    24    1
    27    18    19   ar
    28    19    20   ar
    29    12    13   ar
    30     4     6    1
    31     6     7    1
    32    33    34   ar
    33    34    35   ar
    34    35    30   ar
    35     7     1    1
    36    13     8   ar
    37    20    15   ar
    38    29    36    1
    39    29    37    1
    40    27    28    1
@<TRIPOS>MOLECULE
*****
 37 40 0 0 0
SMALL
GASTEIGER

@<TRIPOS>ATOM
      1 C          63.4978   86.3192   15.6391 C.3     1  UNL1        0.0725
      2 C          64.2251   87.1657   14.6367 C.3     1  UNL1        0.0239
      3 C          64.4017   88.6347   14.8830 C.3     1  UNL1        0.0237
      4 C          63.8510   89.2574   16.1318 C.2     1  UNL1       -0.0441
      5 C          64.0277   90.7264   16.3781 C.2     1  UNL1       -0.0084
      6 C          63.1238   88.4109   17.1340 C.3     1  UNL1        0.0237
      7 C          62.9472   86.9419   16.8877 C.3     1  UNL1        0.0239
      8 C          64.7549   91.5729   15.3757 C.ar    1  UNL1        0.0024
      9 C          65.8230   92.5227   15.8304 C.ar    1  UNL1        0.0002
     10 C          66.5503   93.3692   14.8281 C.ar    1  UNL1        0.0031
     11 C          66.2094   93.2657   13.3710 C.ar    1  UNL1        0.0376
     12 C          65.1412   92.3157   12.9163 C.ar    1  UNL1        0.1472
     13 C          64.4140   91.4694   13.9186 C.ar    1  UNL1        0.0375
     14 O          64.8003   92.2122   11.4592 O.3     1  UNL1       -0.4361
     15 C          63.7719   91.2224   10.9981 C.ar    1  UNL1        0.2297
     16 C          63.5620   89.9483   11.7613 C.ar    1  UNL1        0.0581
     17 C          62.5337   88.9585   11.3001 C.ar    1  UNL1        0.0102
     18 C          61.7151   89.2428   10.0757 C.ar    1  UNL1        0.0907
     19 C          61.9250   90.5169    9.3125 C.ar    1  UNL1        0.1059
     20 N          62.9534   91.5067    9.7737 N.ar    1  UNL1       -0.2099
     21 C          60.6867   88.2530    9.6145 C.3     1  UNL1        0.4200
     22 F          59.6583   87.2632    9.1534 F       1  UNL1       -0.1658
     23 F          60.9264   87.4303   10.8456 F       1  UNL1       -0.1658
     24 F          60.4470   89.0757    8.3834 F       1  UNL1       -0.1658
     25 C          62.8679   84.3644   14.0479 C.2     1  UNL1        0.2488
     26 O          62.5913   85.3477   12.9495 O.2     1  UNL1       -0.2700
     27 N          63.3212   84.8502   15.3927 N.am    1  UNL1       -0.3024
     28 H          63.5027   84.2048   16.1137 H       1  UNL1        0.1497
     29 N          62.1614   78.4882   13.0625 N.pl3   1  UNL1       -0.3274
     30 C          62.3380   79.9572   13.3089 C.ar    1  UNL1        0.2137
     31 N          61.4293   80.6720   14.2645 N.ar    1  UNL1       -0.2123
     32 C          61.6059   82.1411   14.5108 C.ar    1  UNL1        0.1079
     33 C          62.6913   82.8953   13.8016 C.ar    1  UNL1        0.0917
     34 C          63.6000   82.1805   12.8460 C.ar    1  UNL1        0.1079
     35 N          63.4234   80.7115   12.5997 N.ar    1  UNL1       -0.2123
     36 H          61.4490   77.9931   13.5281 H       1  UNL1        0.1452
     37 H          62.7579   78.0190   12.4353 H       1  UNL1        0.1452
@<TRIPOS>BOND
     1    29    30    1
     2    30    31   ar
     3    31    32   ar
     4    32    33   ar
     5    33    25    1
     6    25    26    2
     7    25    27   am
     8    27     1    1
     9     1     2    1
    10     2     3    1
    11     3     4    1
    12     4     5    2
    13     5     8    1
    14     8     9   ar
    15     9    10   ar
    16    10    11   ar
    17    11    12   ar
    18    12    14    1
    19    14    15    1
    20    15    16   ar
    21    16    17   ar
    22    17    18   ar
    23    18    21    1
    24    21    22    1
    25    21    23    1
    26    21    24    1
    27    18    19   ar
    28    19    20   ar
    29    12    13   ar
    30     4     6    1
    31     6     7    1
    32    33    34   ar
    33    34    35   ar
    34    35    30   ar
    35     7     1    1
    36    13     8   ar
    37    20    15   ar
    38    29    36    1
    39    29    37    1
    40    27    28    1
