@<TRIPOS>MOLECULE
*****
 40 44 0 0 0
SMALL
GASTEIGER

@<TRIPOS>ATOM
      1 N          60.3367   88.5034    8.6098 N.3     1  UNL1       -0.2671
      2 C          60.9380   89.8705    8.4705 C.3     1  UNL1        0.0899
      3 C          60.5691   90.7368    7.3028 C.3     1  UNL1        0.0896
      4 N          59.5988   90.2360    6.2744 N.3     1  UNL1       -0.2728
      5 C          58.9974   88.8689    6.4136 C.3     1  UNL1        0.0882
      6 C          59.3663   88.0026    7.5813 C.3     1  UNL1        0.0739
      7 C          58.7650   86.6355    7.7205 C.3     1  UNL1        0.0188
      8 C          60.2928   87.8559   11.2028 C.3     1  UNL1        0.1382
      9 C          60.8842   86.7540   12.0310 C.3     1  UNL1        0.0573
     10 C          61.6624   85.8541   11.1175 C.ar    1  UNL1       -0.0224
     11 C          62.4573   84.6082   11.3739 C.ar    1  UNL1       -0.0006
     12 C          63.1419   83.9081   10.2376 C.ar    1  UNL1        0.0711
     13 C          63.0315   84.4540    8.8448 C.ar    1  UNL1        0.0036
     14 C          62.2366   85.6999    8.5883 C.ar    1  UNL1       -0.0033
     15 C          61.5521   86.3999    9.7247 C.ar    1  UNL1       -0.0093
     16 C          60.7056   87.6371    9.7774 C.3     1  UNL1        0.1077
     17 C          63.9368   82.6621   10.4940 C.3     1  UNL1        0.4186
     18 F          64.7318   81.4163   10.7504 F       1  UNL1       -0.1659
     19 F          65.0496   83.1968    9.6421 F       1  UNL1       -0.1659
     20 F          62.8241   82.1274   11.3459 F       1  UNL1       -0.1659
     21 O          59.4386   88.9795   11.7108 O.3     1  UNL1       -0.3542
     22 C          61.5230   90.5241   11.8503 C.3     1  UNL1        0.0346
     23 C          60.0364   90.3384   11.9250 C.3     1  UNL1        0.1422
     24 C          59.2299   91.1023    5.1067 C.3     1  UNL1        0.0488
     25 C          57.8628   90.7711    5.6275 C.3     1  UNL1        0.0161
     26 C          60.7251   91.1326    4.9915 C.3     1  UNL1        0.0362
     27 C          61.3768   91.9142    3.8894 C.3     1  UNL1        0.0951
     28 N          60.5331   92.6655    2.9026 N.am    1  UNL1       -0.2759
     29 C          61.1846   93.4471    1.8006 C.2     1  UNL1        0.2513
     30 O          62.6799   93.4774    1.6852 O.2     1  UNL1       -0.2698
     31 C          59.0378   92.6351    3.0179 C.3     1  UNL1        0.0951
     32 C          58.3862   91.8536    4.1199 C.3     1  UNL1        0.0362
     33 C          60.3410   94.1984    0.8137 C.ar    1  UNL1        0.0807
     34 C          60.0379   95.6502    1.0382 C.ar    1  UNL1        0.0666
     35 C          60.5784   96.3506    2.2495 C.3     1  UNL1        0.0523
     36 N          59.1942   96.4016    0.0514 N.ar    1  UNL1       -0.2282
     37 C          58.6537   95.7011   -1.1599 C.ar    1  UNL1        0.1982
     38 N          58.9568   94.2493   -1.3843 N.ar    1  UNL1       -0.2282
     39 C          59.8004   93.4979   -0.3976 C.ar    1  UNL1        0.0666
     40 C          60.1035   92.0461   -0.6220 C.3     1  UNL1        0.0523
@<TRIPOS>BOND
     1    22    23    1
     2    23    21    1
     3     8    21    1
     4     8     9    1
     5     9    10    1
     6    10    11   ar
     7    11    12   ar
     8    12    17    1
     9    17    18    1
    10    17    19    1
    11    17    20    1
    12    12    13   ar
    13    13    14   ar
    14    14    15   ar
    15    15    16    1
    16    16     1    1
    17     1     2    1
    18     2     3    1
    19     3     4    1
    20     4    24    1
    21    24    25    1
    22    24    26    1
    23    26    27    1
    24    27    28    1
    25    28    29   am
    26    29    30    2
    27    29    33    1
    28    33    34   ar
    29    34    35    1
    30    34    36   ar
    31    36    37   ar
    32    37    38   ar
    33    38    39   ar
    34    39    40    1
    35    28    31    1
    36    31    32    1
    37     4     5    1
    38     5     6    1
    39     6     7    1
    40    16     8    1
    41     6     1    1
    42    15    10   ar
    43    32    24    1
    44    39    33   ar
@<TRIPOS>MOLECULE
*****
 40 44 0 0 0
SMALL
GASTEIGER

@<TRIPOS>ATOM
      1 N          60.3340   88.5101    8.6022 N.3     1  UNL1       -0.2671
      2 C          60.9336   89.8782    8.4659 C.3     1  UNL1        0.0899
      3 C          60.5647   90.7461    7.2994 C.3     1  UNL1        0.0896
      4 N          59.5961   90.2458    6.2691 N.3     1  UNL1       -0.2728
      5 C          58.9964   88.8777    6.4053 C.3     1  UNL1        0.0882
      6 C          59.3653   88.0098    7.5718 C.3     1  UNL1        0.0739
      7 C          58.7657   86.6417    7.7080 C.3     1  UNL1        0.0188
      8 C          60.2928   87.8610   11.1948 C.3     1  UNL1        0.1382
      9 C          60.8832   86.7571   12.0213 C.3     1  UNL1        0.0573
     10 C          61.6581   85.8562   11.1059 C.ar    1  UNL1       -0.0224
     11 C          62.4508   84.6085   11.3603 C.ar    1  UNL1       -0.0006
     12 C          63.1320   83.9078   10.2224 C.ar    1  UNL1        0.0711
     13 C          63.0206   84.4548    8.8302 C.ar    1  UNL1        0.0036
     14 C          62.2280   85.7026    8.5758 C.ar    1  UNL1       -0.0033
     15 C          61.5467   86.4033    9.7137 C.ar    1  UNL1       -0.0093
     16 C          60.7029   87.6422    9.7687 C.3     1  UNL1        0.1077
     17 C          63.9248   82.6600   10.4767 C.3     1  UNL1        0.4186
     18 F          64.7174   81.4122   10.7311 F       1  UNL1       -0.1659
     19 F          62.7946   82.1087   11.2946 F       1  UNL1       -0.1659
     20 F          65.0549   83.2112    9.6589 F       1  UNL1       -0.1659
     21 O          59.4418   88.9859   11.7049 O.3     1  UNL1       -0.3542
     22 C          61.5345   90.5172   11.8656 C.3     1  UNL1        0.0346
     23 C          60.0467   90.3390   11.9354 C.3     1  UNL1        0.1422
     24 C          59.2272   91.1137    5.1026 C.3     1  UNL1        0.0488
     25 C          57.8605   90.7930    5.6312 C.3     1  UNL1        0.0161
     26 C          60.7219   91.1330    4.9792 C.3     1  UNL1        0.0362
     27 C          61.3733   91.9088    3.8729 C.3     1  UNL1        0.0951
     28 N          60.5298   92.6653    2.8900 N.am    1  UNL1       -0.2759
     29 C          61.1810   93.4411    1.7836 C.2     1  UNL1        0.2513
     30 O          62.6758   93.4604    1.6602 O.2     1  UNL1       -0.2698
     31 C          59.0349   92.6460    3.0134 C.3     1  UNL1        0.0951
     32 C          58.3837   91.8703    4.1197 C.3     1  UNL1        0.0362
     33 C          60.3375   94.1976    0.8007 C.ar    1  UNL1        0.0807
     34 C          59.7902   93.5014   -0.4100 C.ar    1  UNL1        0.0666
     35 C          60.0865   92.0487   -0.6377 C.3     1  UNL1        0.0523
     36 N          58.9467   94.2578   -1.3930 N.ar    1  UNL1       -0.2282
     37 C          58.6505   95.7106   -1.1653 C.ar    1  UNL1        0.1982
     38 N          59.1977   96.4068    0.0454 N.ar    1  UNL1       -0.2282
     39 C          60.0412   95.6504    1.0284 C.ar    1  UNL1        0.0666
     40 C          60.5884   96.3466    2.2391 C.3     1  UNL1        0.0523
@<TRIPOS>BOND
     1    22    23    1
     2    23    21    1
     3     8    21    1
     4     8     9    1
     5     9    10    1
     6    10    11   ar
     7    11    12   ar
     8    12    17    1
     9    17    18    1
    10    17    19    1
    11    17    20    1
    12    12    13   ar
    13    13    14   ar
    14    14    15   ar
    15    15    16    1
    16    16     1    1
    17     1     2    1
    18     2     3    1
    19     3     4    1
    20     4    24    1
    21    24    25    1
    22    24    26    1
    23    26    27    1
    24    27    28    1
    25    28    29   am
    26    29    30    2
    27    29    33    1
    28    33    34   ar
    29    34    35    1
    30    34    36   ar
    31    36    37   ar
    32    37    38   ar
    33    38    39   ar
    34    39    40    1
    35    28    31    1
    36    31    32    1
    37     4     5    1
    38     5     6    1
    39     6     7    1
    40    16     8    1
    41     6     1    1
    42    15    10   ar
    43    32    24    1
    44    39    33   ar
