@<TRIPOS>MOLECULE
*****
 35 38 0 0 0
SMALL
GASTEIGER

@<TRIPOS>ATOM
      1 N          62.7460   85.2669    9.2251 N.am    1  UNL1       -0.2770
      2 C          61.8991   86.3044    9.9007 C.2     1  UNL1        0.2270
      3 O          62.0986   86.6033   11.3570 O.2     1  UNL1       -0.2748
      4 C          60.8528   87.0431    9.1199 C.3     1  UNL1        0.0964
      5 C          59.9300   86.2928    8.2058 C.3     1  UNL1        0.0780
      6 N          58.8837   87.0315    7.4250 N.3     1  UNL1       -0.2970
      7 C          58.7602   88.5205    7.5584 C.3     1  UNL1        0.0689
      8 C          59.6830   89.2707    8.4725 C.3     1  UNL1        0.0220
      9 C          60.7293   88.5321    9.2533 C.3     1  UNL1        0.0339
     10 H          57.9825   86.6361    7.6930 H       1  UNL1        0.1233
     11 C          61.6520   89.2823   10.1674 C.ar    1  UNL1       -0.0157
     12 C          62.7342   90.1489    9.5945 C.ar    1  UNL1        0.0146
     13 C          63.6569   90.8991   10.5086 C.ar    1  UNL1        0.0781
     14 N          63.4976   90.7828   11.9956 N.ar    1  UNL1       -0.2922
     15 C          64.4204   91.5331   12.9097 C.3     1  UNL1        0.1336
     16 C          62.4156   89.9162   12.5685 C.ar    1  UNL1        0.2607
     17 O          62.2563   89.7999   14.0554 O.2     1  UNL1       -0.2670
     18 C          61.4927   89.1659   11.6543 C.ar    1  UNL1        0.0565
     19 C          62.5465   84.9680    7.7688 C.3     1  UNL1        0.0758
     20 C          63.0902   84.8857    6.3732 C.3     1  UNL1        0.0215
     21 C          61.6573   84.5328    6.6419 C.3     1  UNL1        0.0215
     22 C          63.7922   84.5282   10.0059 C.3     1  UNL1        0.1201
     23 C          62.6776   82.4492   13.1973 C.ar    1  UNL1       -0.0258
     24 C          63.0694   83.6041   12.3239 C.ar    1  UNL1       -0.0072
     25 C          63.4004   83.3734   10.8792 C.ar    1  UNL1       -0.0022
     26 C          63.3396   81.9877   10.3079 C.ar    1  UNL1        0.0037
     27 C          62.9478   80.8329   11.1813 C.ar    1  UNL1        0.0300
     28 BR         62.8870   79.4473   10.6100 Br      1  UNL1       -0.0493
     29 C          62.6168   81.0637   12.6260 C.ar    1  UNL1       -0.0196
     30 C          62.2249   79.9089   13.4994 C.3     1  UNL1        0.0312
     31 C          62.3465   82.6800   14.6420 C.3     1  UNL1        0.0286
     32 C          62.1839   84.0783   15.1601 C.3     1  UNL1        0.0367
     33 C          63.3716   84.8233   15.6935 C.3     1  UNL1        0.1426
     34 C          62.5990   86.3718   17.6313 C.3     1  UNL1        0.1741
     35 O          63.1986   86.1983   16.2674 O.3     1  UNL1       -0.3511
@<TRIPOS>BOND
     1    34    35    1
     2    35    33    1
     3    33    32    1
     4    32    31    1
     5    31    23    1
     6    23    24   ar
     7    24    25   ar
     8    25    22    1
     9    22     1    1
    10     1     2   am
    11     2     3    2
    12     4     2    1
    13     4     5    1
    14     5     6    1
    15     6     7    1
    16     7     8    1
    17     8     9    1
    18     9    11    1
    19    11    12   ar
    20    12    13   ar
    21    13    14   ar
    22    14    15    1
    23    14    16   ar
    24    16    17    2
    25    16    18   ar
    26     1    19    1
    27    19    20    1
    28    20    21    1
    29    25    26   ar
    30    26    27   ar
    31    27    28    1
    32    27    29   ar
    33    29    30    1
    34    29    23   ar
    35     9     4    1
    36    18    11   ar
    37    21    19    1
    38     6    10    1
@<TRIPOS>MOLECULE
*****
 35 38 0 0 0
SMALL
GASTEIGER

@<TRIPOS>ATOM
      1 N          61.4643   89.3682   12.1601 N.am    1  UNL1       -0.2770
      2 C          62.0560   88.5545   11.0475 C.2     1  UNL1        0.2270
      3 O          63.4847   88.1043   11.1254 O.2     1  UNL1       -0.2748
      4 C          61.2190   88.1910    9.8570 C.3     1  UNL1        0.0964
      5 C          60.4163   89.2456    9.1544 C.3     1  UNL1        0.0780
      6 N          59.5793   88.8821    7.9639 N.3     1  UNL1       -0.2970
      7 C          59.5449   87.4640    7.4761 C.3     1  UNL1        0.0689
      8 C          60.3475   86.4095    8.1787 C.3     1  UNL1        0.0220
      9 C          61.1846   86.7730    9.3692 C.3     1  UNL1        0.0339
     10 H          59.9099   89.4532    7.1861 H       1  UNL1        0.1233
     11 C          61.9872   85.7185   10.0718 C.ar    1  UNL1       -0.0157
     12 C          62.9828   84.8988    9.3056 C.ar    1  UNL1        0.0146
     13 C          63.7854   83.8443   10.0082 C.ar    1  UNL1        0.0781
     14 N          63.5925   83.6094   11.4771 N.ar    1  UNL1       -0.2922
     15 C          64.3952   82.5548   12.1797 C.3     1  UNL1        0.1336
     16 C          62.5970   84.4290   12.2433 C.ar    1  UNL1        0.2607
     17 O          62.4041   84.1940   13.7122 O.2     1  UNL1       -0.2670
     18 C          61.7943   85.4836   11.5407 C.ar    1  UNL1        0.0565
     19 C          60.0356   89.8184   12.0822 C.3     1  UNL1        0.0758
     20 C          59.0153   90.8367   11.6677 C.3     1  UNL1        0.0215
     21 C          58.5814   89.5798   12.3618 C.3     1  UNL1        0.0215
     22 C          62.3014   89.7317   13.3506 C.3     1  UNL1        0.1201
     23 C          64.9958   92.1460   11.7192 C.ar    1  UNL1       -0.0258
     24 C          63.7570   91.3191   11.8976 C.ar    1  UNL1       -0.0072
     25 C          63.5401   90.5585   13.1722 C.ar    1  UNL1       -0.0022
     26 C          64.5619   90.6249   14.2683 C.ar    1  UNL1        0.0037
     27 C          65.8006   91.4517   14.0899 C.ar    1  UNL1        0.0300
     28 BR         66.8224   91.5180   15.1860 Br      1  UNL1       -0.0493
     29 C          66.0175   92.2123   12.8153 C.ar    1  UNL1       -0.0196
     30 C          67.2562   93.0392   12.6369 C.3     1  UNL1        0.0312
     31 C          65.2127   92.9066   10.4447 C.3     1  UNL1        0.0286
     32 C          65.7809   94.2943   10.4868 C.3     1  UNL1        0.0367
     33 C          66.7910   94.7224    9.4639 C.3     1  UNL1        0.1426
     34 C          68.5778   92.8675    9.1223 C.3     1  UNL1        0.1741
     35 O          68.2113   94.2515    9.5696 O.3     1  UNL1       -0.3511
@<TRIPOS>BOND
     1    34    35    1
     2    35    33    1
     3    33    32    1
     4    32    31    1
     5    31    23    1
     6    23    24   ar
     7    24    25   ar
     8    25    22    1
     9    22     1    1
    10     1     2   am
    11     2     3    2
    12     4     2    1
    13     4     5    1
    14     5     6    1
    15     6     7    1
    16     7     8    1
    17     8     9    1
    18     9    11    1
    19    11    12   ar
    20    12    13   ar
    21    13    14   ar
    22    14    15    1
    23    14    16   ar
    24    16    17    2
    25    16    18   ar
    26     1    19    1
    27    19    20    1
    28    20    21    1
    29    25    26   ar
    30    26    27   ar
    31    27    28    1
    32    27    29   ar
    33    29    30    1
    34    29    23   ar
    35     9     4    1
    36    18    11   ar
    37    21    19    1
    38     6    10    1
@<TRIPOS>MOLECULE
*****
 35 38 0 0 0
SMALL
GASTEIGER

@<TRIPOS>ATOM
      1 N          61.5839   89.2709   12.0750 N.am    1  UNL1       -0.2770
      2 C          62.1301   88.4738   10.9276 C.2     1  UNL1        0.2270
      3 O          63.5610   88.0240   10.9407 O.2     1  UNL1       -0.2748
      4 C          61.2454   88.1267    9.7671 C.3     1  UNL1        0.0964
      5 C          60.4300   89.1944    9.0999 C.3     1  UNL1        0.0780
      6 N          59.5453   88.8473    7.9394 N.3     1  UNL1       -0.2970
      7 C          59.4760   87.4324    7.4460 C.3     1  UNL1        0.0689
      8 C          60.2915   86.3647    8.1132 C.3     1  UNL1        0.0220
      9 C          61.1762   86.7119    9.2737 C.3     1  UNL1        0.0339
     10 H          59.8537   89.4187    7.1528 H       1  UNL1        0.1233
     11 C          61.9917   85.6442    9.9408 C.ar    1  UNL1       -0.0157
     12 C          62.9960   84.8619    9.1475 C.ar    1  UNL1        0.0146
     13 C          63.8115   83.7942    9.8146 C.ar    1  UNL1        0.0781
     14 N          63.6227   83.5089   11.2751 N.ar    1  UNL1       -0.2922
     15 C          64.4382   82.4412   11.9422 C.3     1  UNL1        0.1336
     16 C          62.6184   84.2912   12.0684 C.ar    1  UNL1        0.2607
     17 O          62.4296   84.0058   13.5288 O.2     1  UNL1       -0.2670
     18 C          61.8029   85.3589   11.4013 C.ar    1  UNL1        0.0565
     19 C          60.1530   89.7207   12.0618 C.3     1  UNL1        0.0758
     20 C          58.7105   89.4735   12.3906 C.3     1  UNL1        0.0215
     21 C          59.1171   90.7470   11.7103 C.3     1  UNL1        0.0215
     22 C          62.4686   89.6180   13.2355 C.3     1  UNL1        0.1201
     23 C          65.3788   92.1648   14.1269 C.ar    1  UNL1       -0.0258
     24 C          64.3273   91.1054   14.2760 C.ar    1  UNL1       -0.0072
     25 C          63.5201   90.6773   13.0864 C.ar    1  UNL1       -0.0022
     26 C          63.7643   91.3086   11.7478 C.ar    1  UNL1        0.0037
     27 C          64.8158   92.3679   11.5987 C.ar    1  UNL1        0.0300
     28 BR         65.0600   92.9991   10.2601 Br      1  UNL1       -0.0493
     29 C          65.6230   92.7960   12.7883 C.ar    1  UNL1       -0.0196
     30 C          66.6745   93.8553   12.6392 C.3     1  UNL1        0.0312
     31 C          66.1861   92.5929   15.3164 C.3     1  UNL1        0.0286
     32 C          67.4930   91.9208   15.6172 C.3     1  UNL1        0.0367
     33 C          68.7801   92.6703   15.4400 C.3     1  UNL1        0.1426
     34 C          69.0842   91.5963   13.0939 C.3     1  UNL1        0.1741
     35 O          69.5592   92.5321   14.1657 O.3     1  UNL1       -0.3511
@<TRIPOS>BOND
     1    34    35    1
     2    35    33    1
     3    33    32    1
     4    32    31    1
     5    31    23    1
     6    23    24   ar
     7    24    25   ar
     8    25    22    1
     9    22     1    1
    10     1     2   am
    11     2     3    2
    12     4     2    1
    13     4     5    1
    14     5     6    1
    15     6     7    1
    16     7     8    1
    17     8     9    1
    18     9    11    1
    19    11    12   ar
    20    12    13   ar
    21    13    14   ar
    22    14    15    1
    23    14    16   ar
    24    16    17    2
    25    16    18   ar
    26     1    19    1
    27    19    20    1
    28    20    21    1
    29    25    26   ar
    30    26    27   ar
    31    27    28    1
    32    27    29   ar
    33    29    30    1
    34    29    23   ar
    35     9     4    1
    36    18    11   ar
    37    21    19    1
    38     6    10    1
@<TRIPOS>MOLECULE
*****
 35 38 0 0 0
SMALL
GASTEIGER

@<TRIPOS>ATOM
      1 N          62.0511   86.9721   10.3164 N.am    1  UNL1       -0.2770
      2 C          61.9822   87.9327   11.4665 C.2     1  UNL1        0.2270
      3 O          63.0561   87.9271   12.5137 O.2     1  UNL1       -0.2748
      4 C          60.8394   88.8989   11.5693 C.3     1  UNL1        0.0964
      5 C          59.4320   88.3886   11.6631 C.3     1  UNL1        0.0780
      6 N          58.2892   89.3548   11.7658 N.3     1  UNL1       -0.2970
      7 C          58.5539   90.8313   11.7748 C.3     1  UNL1        0.0689
      8 C          59.9613   91.3415   11.6810 C.3     1  UNL1        0.0220
      9 C          61.1041   90.3753   11.5783 C.3     1  UNL1        0.0339
     10 H          57.7978   89.1385   12.6331 H       1  UNL1        0.1233
     11 C          62.5115   90.8855   11.4845 C.ar    1  UNL1       -0.0157
     12 C          63.0918   91.2444   10.1486 C.ar    1  UNL1        0.0146
     13 C          64.4992   91.7546   10.0548 C.ar    1  UNL1        0.0781
     14 N          65.3264   91.9060   11.2969 N.ar    1  UNL1       -0.2922
     15 C          66.7339   92.4163   11.2030 C.3     1  UNL1        0.1336
     16 C          64.7462   91.5472   12.6327 C.ar    1  UNL1        0.2607
     17 O          65.5734   91.6986   13.8748 O.2     1  UNL1       -0.2670
     18 C          63.3387   91.0370   12.7266 C.ar    1  UNL1        0.0565
     19 C          60.9772   86.9778    9.2692 C.3     1  UNL1        0.0758
     20 C          60.0423   87.7326    8.3713 C.3     1  UNL1        0.0215
     21 C          60.0521   86.2328    8.3532 C.3     1  UNL1        0.0215
     22 C          63.1938   86.0059   10.2136 C.3     1  UNL1        0.1201
     23 C          63.1043   83.5537   13.3327 C.ar    1  UNL1       -0.0258
     24 C          63.1136   84.8155   12.5215 C.ar    1  UNL1       -0.0072
     25 C          63.1845   84.7443   11.0249 C.ar    1  UNL1       -0.0022
     26 C          63.2462   83.4114   10.3395 C.ar    1  UNL1        0.0037
     27 C          63.2369   82.1498   11.1507 C.ar    1  UNL1        0.0300
     28 BR         63.2986   80.8170   10.4653 Br      1  UNL1       -0.0493
     29 C          63.1660   82.2209   12.6473 C.ar    1  UNL1       -0.0196
     30 C          63.1567   80.9593   13.4585 C.3     1  UNL1        0.0312
     31 C          63.0333   83.6249   14.8293 C.3     1  UNL1        0.0286
     32 C          63.8672   84.6258   15.5730 C.3     1  UNL1        0.0367
     33 C          63.2049   85.6779   16.4123 C.3     1  UNL1        0.1426
     34 C          63.0561   88.1832   17.0840 C.3     1  UNL1        0.1741
     35 O          63.3700   87.1278   16.0653 O.3     1  UNL1       -0.3511
@<TRIPOS>BOND
     1    34    35    1
     2    35    33    1
     3    33    32    1
     4    32    31    1
     5    31    23    1
     6    23    24   ar
     7    24    25   ar
     8    25    22    1
     9    22     1    1
    10     1     2   am
    11     2     3    2
    12     4     2    1
    13     4     5    1
    14     5     6    1
    15     6     7    1
    16     7     8    1
    17     8     9    1
    18     9    11    1
    19    11    12   ar
    20    12    13   ar
    21    13    14   ar
    22    14    15    1
    23    14    16   ar
    24    16    17    2
    25    16    18   ar
    26     1    19    1
    27    19    20    1
    28    20    21    1
    29    25    26   ar
    30    26    27   ar
    31    27    28    1
    32    27    29   ar
    33    29    30    1
    34    29    23   ar
    35     9     4    1
    36    18    11   ar
    37    21    19    1
    38     6    10    1
@<TRIPOS>MOLECULE
*****
 35 38 0 0 0
SMALL
GASTEIGER

@<TRIPOS>ATOM
      1 N          58.5212   94.8277   -1.3238 N.am    1  UNL1       -0.2770
      2 C          58.6358   95.5793   -2.6169 C.2     1  UNL1        0.2270
      3 O          59.4221   96.8553   -2.6756 O.2     1  UNL1       -0.2748
      4 C          57.9641   95.0548   -3.8513 C.3     1  UNL1        0.0964
      5 C          56.4750   95.1613   -3.9976 C.3     1  UNL1        0.0780
      6 N          55.8033   94.6368   -5.2319 N.3     1  UNL1       -0.2970
      7 C          56.6207   94.0058   -6.3200 C.3     1  UNL1        0.0689
      8 C          58.1097   93.8993   -6.1737 C.3     1  UNL1        0.0220
      9 C          58.7814   94.4238   -4.9393 C.3     1  UNL1        0.0339
     10 H          55.3077   95.4222   -5.6538 H       1  UNL1        0.1233
     11 C          60.2704   94.3173   -4.7929 C.ar    1  UNL1       -0.0157
     12 C          60.8606   93.7022   -3.5587 C.ar    1  UNL1        0.0146
     13 C          62.3497   93.5958   -3.4123 C.ar    1  UNL1        0.0781
     14 N          63.2485   94.1043   -4.5002 N.ar    1  UNL1       -0.2922
     15 C          64.7376   93.9978   -4.3538 C.3     1  UNL1        0.1336
     16 C          62.6583   94.7194   -5.7344 C.ar    1  UNL1        0.2607
     17 O          63.5571   95.2280   -6.8223 O.2     1  UNL1       -0.2670
     18 C          61.1692   94.8259   -5.8808 C.ar    1  UNL1        0.0565
     19 C          57.7349   93.5517   -1.2651 C.3     1  UNL1        0.0758
     20 C          56.4166   92.8362   -1.2820 C.3     1  UNL1        0.0215
     21 C          57.6912   92.0571   -1.1465 C.3     1  UNL1        0.0215
     22 C          59.1929   95.3522   -0.0894 C.3     1  UNL1        0.1201
     23 C          60.8487   92.9352    2.5877 C.ar    1  UNL1       -0.0258
     24 C          59.8308   93.7744    1.8736 C.ar    1  UNL1       -0.0072
     25 C          60.2107   94.5131    0.6247 C.ar    1  UNL1       -0.0022
     26 C          61.6086   94.4127    0.0898 C.ar    1  UNL1        0.0037
     27 C          62.6264   93.5736    0.8039 C.ar    1  UNL1        0.0300
     28 BR         64.0241   93.4733    0.2690 Br      1  UNL1       -0.0493
     29 C          62.2464   92.8349    2.0528 C.ar    1  UNL1       -0.0196
     30 C          63.2642   91.9958    2.7669 C.3     1  UNL1        0.0312
     31 C          60.4687   92.1965    3.8367 C.3     1  UNL1        0.0286
     32 C          59.0241   92.0587    4.2165 C.3     1  UNL1        0.0367
     33 C          58.6392   91.2552    5.4232 C.3     1  UNL1        0.1426
     34 C          59.3587   89.3009    6.9765 C.3     1  UNL1        0.1741
     35 O          59.1715   89.8639    5.5988 O.3     1  UNL1       -0.3511
@<TRIPOS>BOND
     1    34    35    1
     2    35    33    1
     3    33    32    1
     4    32    31    1
     5    31    23    1
     6    23    24   ar
     7    24    25   ar
     8    25    22    1
     9    22     1    1
    10     1     2   am
    11     2     3    2
    12     4     2    1
    13     4     5    1
    14     5     6    1
    15     6     7    1
    16     7     8    1
    17     8     9    1
    18     9    11    1
    19    11    12   ar
    20    12    13   ar
    21    13    14   ar
    22    14    15    1
    23    14    16   ar
    24    16    17    2
    25    16    18   ar
    26     1    19    1
    27    19    20    1
    28    20    21    1
    29    25    26   ar
    30    26    27   ar
    31    27    28    1
    32    27    29   ar
    33    29    30    1
    34    29    23   ar
    35     9     4    1
    36    18    11   ar
    37    21    19    1
    38     6    10    1
@<TRIPOS>MOLECULE
*****
 35 38 0 0 0
SMALL
GASTEIGER

@<TRIPOS>ATOM
      1 N          58.0389   93.0895   -1.7605 N.am    1  UNL1       -0.2770
      2 C          57.5323   94.4666   -1.4490 C.2     1  UNL1        0.2270
      3 O          58.1815   95.2776   -0.3670 O.2     1  UNL1       -0.2748
      4 C          56.3765   95.0327   -2.2195 C.3     1  UNL1        0.0964
      5 C          54.9849   94.9275   -1.6694 C.3     1  UNL1        0.0780
      6 N          53.8291   95.4935   -2.4399 N.3     1  UNL1       -0.2970
      7 C          54.0649   96.1647   -3.7606 C.3     1  UNL1        0.0689
      8 C          55.4564   96.2699   -4.3106 C.3     1  UNL1        0.0220
      9 C          56.6122   95.7039   -3.5400 C.3     1  UNL1        0.0339
     10 H          53.3812   96.1822   -1.8354 H       1  UNL1        0.1233
     11 C          58.0037   95.8090   -4.0901 C.ar    1  UNL1       -0.0157
     12 C          58.9895   96.7492   -3.4619 C.ar    1  UNL1        0.0146
     13 C          60.3810   96.8543   -4.0119 C.ar    1  UNL1        0.0781
     14 N          60.7868   96.0194   -5.1901 N.ar    1  UNL1       -0.2922
     15 C          62.1785   96.1246   -5.7401 C.3     1  UNL1        0.1336
     16 C          59.8012   95.0793   -5.8183 C.ar    1  UNL1        0.2607
     17 O          60.2071   94.2444   -6.9965 O.2     1  UNL1       -0.2670
     18 C          58.4096   94.9741   -5.2683 C.ar    1  UNL1        0.0565
     19 C          57.3897   92.2785   -2.8425 C.3     1  UNL1        0.0758
     20 C          56.1788   91.5936   -3.4035 C.3     1  UNL1        0.0215
     21 C          57.4761   91.5587   -4.1557 C.3     1  UNL1        0.0215
     22 C          59.1947   92.5235   -0.9900 C.3     1  UNL1        0.1201
     23 C          62.6619   93.7905   -2.4471 C.ar    1  UNL1       -0.0258
     24 C          61.3131   93.1397   -2.3621 C.ar    1  UNL1       -0.0072
     25 C          60.5435   93.1742   -1.0751 C.ar    1  UNL1       -0.0022
     26 C          61.1227   93.8596    0.1270 C.ar    1  UNL1        0.0037
     27 C          62.4715   94.5104    0.0419 C.ar    1  UNL1        0.0300
     28 BR         63.0506   95.1957    1.2439 Br      1  UNL1       -0.0493
     29 C          63.2411   94.4758   -1.2451 C.ar    1  UNL1       -0.0196
     30 C          64.5898   95.1266   -1.3302 C.3     1  UNL1        0.0312
     31 C          63.4315   93.7560   -3.7342 C.3     1  UNL1        0.0286
     32 C          64.2497   92.5491   -4.0866 C.3     1  UNL1        0.0367
     33 C          64.4790   92.1925   -5.5255 C.3     1  UNL1        0.1426
     34 C          66.0837   93.8234   -6.7564 C.3     1  UNL1        0.1741
     35 O          65.8063   92.4729   -6.1654 O.3     1  UNL1       -0.3511
@<TRIPOS>BOND
     1    34    35    1
     2    35    33    1
     3    33    32    1
     4    32    31    1
     5    31    23    1
     6    23    24   ar
     7    24    25   ar
     8    25    22    1
     9    22     1    1
    10     1     2   am
    11     2     3    2
    12     4     2    1
    13     4     5    1
    14     5     6    1
    15     6     7    1
    16     7     8    1
    17     8     9    1
    18     9    11    1
    19    11    12   ar
    20    12    13   ar
    21    13    14   ar
    22    14    15    1
    23    14    16   ar
    24    16    17    2
    25    16    18   ar
    26     1    19    1
    27    19    20    1
    28    20    21    1
    29    25    26   ar
    30    26    27   ar
    31    27    28    1
    32    27    29   ar
    33    29    30    1
    34    29    23   ar
    35     9     4    1
    36    18    11   ar
    37    21    19    1
    38     6    10    1
@<TRIPOS>MOLECULE
*****
 35 38 0 0 0
SMALL
GASTEIGER

@<TRIPOS>ATOM
      1 N          61.5190   88.5486   11.5821 N.am    1  UNL1       -0.2770
      2 C          62.9552   88.5829   12.0140 C.2     1  UNL1        0.2270
      3 O          63.7184   87.3027   12.1826 O.2     1  UNL1       -0.2748
      4 C          63.6280   89.8975   12.2771 C.3     1  UNL1        0.0964
      5 C          63.8978   90.8421   11.1435 C.3     1  UNL1        0.0780
      6 N          64.5706   92.1567   11.4066 N.3     1  UNL1       -0.2970
      7 C          64.9737   92.5266   12.8033 C.3     1  UNL1        0.0689
      8 C          64.7039   91.5820   13.9368 C.3     1  UNL1        0.0220
      9 C          64.0311   90.2674   13.6737 C.3     1  UNL1        0.0339
     10 H          63.9334   92.8838   11.0816 H       1  UNL1        0.1233
     11 C          63.7613   89.3228   14.8072 C.ar    1  UNL1       -0.0157
     12 C          63.0368   89.8049   16.0290 C.ar    1  UNL1        0.0146
     13 C          62.7670   88.8603   17.1626 C.ar    1  UNL1        0.0781
     14 N          63.2217   87.4336   17.0743 N.ar    1  UNL1       -0.2922
     15 C          62.9518   86.4890   18.2079 C.3     1  UNL1        0.1336
     16 C          63.9461   86.9515   15.8526 C.ar    1  UNL1        0.2607
     17 O          64.4008   85.5248   15.7644 O.2     1  UNL1       -0.2670
     18 C          64.2159   87.8961   14.7190 C.ar    1  UNL1        0.0565
     19 C          60.7558   89.8288   11.4135 C.3     1  UNL1        0.0758
     20 C          60.6615   91.2227   10.8673 C.3     1  UNL1        0.0215
     21 C          59.5282   90.6524   11.6674 C.3     1  UNL1        0.0215
     22 C          60.8462   87.2341   11.3190 C.3     1  UNL1        0.1201
     23 C          62.9138   83.8487   11.4383 C.ar    1  UNL1       -0.0258
     24 C          62.1033   85.0309   11.8807 C.ar    1  UNL1       -0.0072
     25 C          61.6567   86.0520   10.8767 C.ar    1  UNL1       -0.0022
     26 C          62.0206   85.8909    9.4304 C.ar    1  UNL1        0.0037
     27 C          62.8311   84.7088    8.9881 C.ar    1  UNL1        0.0300
     28 BR         63.1949   84.5477    7.5419 Br      1  UNL1       -0.0493
     29 C          63.2777   83.6877    9.9921 C.ar    1  UNL1       -0.0196
     30 C          64.0882   82.5056    9.5498 C.3     1  UNL1        0.0312
     31 C          63.3605   82.8276   12.4422 C.3     1  UNL1        0.0286
     32 C          63.0016   82.9918   13.8894 C.3     1  UNL1        0.0367
     33 C          61.9146   82.1522   14.4925 C.3     1  UNL1        0.1426
     34 C          60.0056   80.4186   14.1762 C.3     1  UNL1        0.1741
     35 O          61.2573   81.0780   13.6777 O.3     1  UNL1       -0.3511
@<TRIPOS>BOND
     1    34    35    1
     2    35    33    1
     3    33    32    1
     4    32    31    1
     5    31    23    1
     6    23    24   ar
     7    24    25   ar
     8    25    22    1
     9    22     1    1
    10     1     2   am
    11     2     3    2
    12     4     2    1
    13     4     5    1
    14     5     6    1
    15     6     7    1
    16     7     8    1
    17     8     9    1
    18     9    11    1
    19    11    12   ar
    20    12    13   ar
    21    13    14   ar
    22    14    15    1
    23    14    16   ar
    24    16    17    2
    25    16    18   ar
    26     1    19    1
    27    19    20    1
    28    20    21    1
    29    25    26   ar
    30    26    27   ar
    31    27    28    1
    32    27    29   ar
    33    29    30    1
    34    29    23   ar
    35     9     4    1
    36    18    11   ar
    37    21    19    1
    38     6    10    1
@<TRIPOS>MOLECULE
*****
 35 38 0 0 0
SMALL
GASTEIGER

@<TRIPOS>ATOM
      1 N          62.7340   85.2515    9.1034 N.am    1  UNL1       -0.2770
      2 C          61.9283   86.3195    9.7818 C.2     1  UNL1        0.2270
      3 O          62.1822   86.6491   11.2229 O.2     1  UNL1       -0.2748
      4 C          60.8687   87.0580    9.0190 C.3     1  UNL1        0.0964
      5 C          59.9527   86.3121    8.0945 C.3     1  UNL1        0.0780
      6 N          58.8931   87.0506    7.3317 N.3     1  UNL1       -0.2970
      7 C          58.7494   88.5349    7.4934 C.3     1  UNL1        0.0689
      8 C          59.6654   89.2808    8.4178 C.3     1  UNL1        0.0220
      9 C          60.7250   88.5423    9.1807 C.3     1  UNL1        0.0339
     10 H          57.9985   86.6377    7.5956 H       1  UNL1        0.1233
     11 C          61.6410   89.2881   10.1052 C.ar    1  UNL1       -0.0157
     12 C          62.7307   90.1531    9.5445 C.ar    1  UNL1        0.0146
     13 C          63.6467   90.8989   10.4690 C.ar    1  UNL1        0.0781
     14 N          63.4729   90.7798   11.9541 N.ar    1  UNL1       -0.2922
     15 C          64.3890   91.5257   12.8786 C.3     1  UNL1        0.1336
     16 C          62.3832   89.9149   12.5148 C.ar    1  UNL1        0.2607
     17 O          62.2095   89.7958   13.9999 O.2     1  UNL1       -0.2670
     18 C          61.4672   89.1690   11.5903 C.ar    1  UNL1        0.0565
     19 C          62.4801   84.9219    7.6623 C.3     1  UNL1        0.0758
     20 C          61.5560   84.4412    6.5830 C.3     1  UNL1        0.0215
     21 C          62.9643   84.8318    6.2455 C.3     1  UNL1        0.0215
     22 C          63.7936   84.5130    9.8663 C.3     1  UNL1        0.1201
     23 C          62.9429   81.0219   11.5511 C.ar    1  UNL1       -0.0258
     24 C          63.3325   82.0418   10.5224 C.ar    1  UNL1       -0.0072
     25 C          63.4040   83.4931   10.8948 C.ar    1  UNL1       -0.0022
     26 C          63.0860   83.9244   12.2959 C.ar    1  UNL1        0.0037
     27 C          62.6964   82.9045   13.3244 C.ar    1  UNL1        0.0300
     28 BR         62.3784   83.3359   14.7254 Br      1  UNL1       -0.0493
     29 C          62.6249   81.4532   12.9520 C.ar    1  UNL1       -0.0196
     30 C          62.2354   80.4333   13.9806 C.3     1  UNL1        0.0312
     31 C          62.8714   79.5706   11.1787 C.3     1  UNL1        0.0286
     32 C          62.6771   79.1728    9.7454 C.3     1  UNL1        0.0367
     33 C          63.6758   78.2776    9.0736 C.3     1  UNL1        0.1426
     34 C          64.9422   76.0108    8.9863 C.3     1  UNL1        0.1741
     35 O          64.1110   77.0062    9.7401 O.3     1  UNL1       -0.3511
@<TRIPOS>BOND
     1    34    35    1
     2    35    33    1
     3    33    32    1
     4    32    31    1
     5    31    23    1
     6    23    24   ar
     7    24    25   ar
     8    25    22    1
     9    22     1    1
    10     1     2   am
    11     2     3    2
    12     4     2    1
    13     4     5    1
    14     5     6    1
    15     6     7    1
    16     7     8    1
    17     8     9    1
    18     9    11    1
    19    11    12   ar
    20    12    13   ar
    21    13    14   ar
    22    14    15    1
    23    14    16   ar
    24    16    17    2
    25    16    18   ar
    26     1    19    1
    27    19    20    1
    28    20    21    1
    29    25    26   ar
    30    26    27   ar
    31    27    28    1
    32    27    29   ar
    33    29    30    1
    34    29    23   ar
    35     9     4    1
    36    18    11   ar
    37    21    19    1
    38     6    10    1
@<TRIPOS>MOLECULE
*****
 35 38 0 0 0
SMALL
GASTEIGER

@<TRIPOS>ATOM
      1 N          61.4933   88.4654   11.5979 N.am    1  UNL1       -0.2770
      2 C          62.9206   88.5010   12.0581 C.2     1  UNL1        0.2270
      3 O          63.6655   87.2202   12.2917 O.2     1  UNL1       -0.2748
      4 C          63.6029   89.8175   12.2847 C.3     1  UNL1        0.0964
      5 C          63.8684   90.7337   11.1270 C.3     1  UNL1        0.0780
      6 N          64.5507   92.0502   11.3536 N.3     1  UNL1       -0.2970
      7 C          64.9674   92.4505   12.7378 C.3     1  UNL1        0.0689
      8 C          64.7020   91.5343   13.8954 C.3     1  UNL1        0.0220
      9 C          64.0197   90.2178   13.6689 C.3     1  UNL1        0.0339
     10 H          63.9148   92.7732   11.0169 H       1  UNL1        0.1233
     11 C          63.7542   89.3017   14.8264 C.ar    1  UNL1       -0.0157
     12 C          63.0758   89.8257   16.0575 C.ar    1  UNL1        0.0146
     13 C          62.8103   88.9095   17.2150 C.ar    1  UNL1        0.0781
     14 N          63.2232   87.4693   17.1417 N.ar    1  UNL1       -0.2922
     15 C          62.9576   86.5531   18.2994 C.3     1  UNL1        0.1336
     16 C          63.9015   86.9453   15.9108 C.ar    1  UNL1        0.2607
     17 O          64.3144   85.5051   15.8375 O.2     1  UNL1       -0.2670
     18 C          64.1671   87.8615   14.7531 C.ar    1  UNL1        0.0565
     19 C          60.7484   89.7462   11.3643 C.3     1  UNL1        0.0758
     20 C          59.6807   90.7199   11.7667 C.3     1  UNL1        0.0215
     21 C          60.5258   90.9909   10.5575 C.3     1  UNL1        0.0215
     22 C          60.8111   87.1489   11.3713 C.3     1  UNL1        0.1201
     23 C          62.9238   84.4534    9.3661 C.ar    1  UNL1       -0.0258
     24 C          62.1110   85.6769    9.6703 C.ar    1  UNL1       -0.0072
     25 C          61.6239   85.9255   11.0671 C.ar    1  UNL1       -0.0022
     26 C          61.9496   84.9506   12.1596 C.ar    1  UNL1        0.0037
     27 C          62.7623   83.7272   11.8554 C.ar    1  UNL1        0.0300
     28 BR         63.0880   82.7523   12.9479 Br      1  UNL1       -0.0493
     29 C          63.2495   83.4786   10.4586 C.ar    1  UNL1       -0.0196
     30 C          64.0623   82.2552   10.1544 C.3     1  UNL1        0.0312
     31 C          63.4110   84.2048    7.9694 C.3     1  UNL1        0.0286
     32 C          62.8193   84.9683    6.8217 C.3     1  UNL1        0.0367
     33 C          61.5418   84.5012    6.1893 C.3     1  UNL1        0.1426
     34 C          59.9475   86.1707    7.3813 C.3     1  UNL1        0.1741
     35 O          60.2270   84.7969    6.8479 O.3     1  UNL1       -0.3511
@<TRIPOS>BOND
     1    34    35    1
     2    35    33    1
     3    33    32    1
     4    32    31    1
     5    31    23    1
     6    23    24   ar
     7    24    25   ar
     8    25    22    1
     9    22     1    1
    10     1     2   am
    11     2     3    2
    12     4     2    1
    13     4     5    1
    14     5     6    1
    15     6     7    1
    16     7     8    1
    17     8     9    1
    18     9    11    1
    19    11    12   ar
    20    12    13   ar
    21    13    14   ar
    22    14    15    1
    23    14    16   ar
    24    16    17    2
    25    16    18   ar
    26     1    19    1
    27    19    20    1
    28    20    21    1
    29    25    26   ar
    30    26    27   ar
    31    27    28    1
    32    27    29   ar
    33    29    30    1
    34    29    23   ar
    35     9     4    1
    36    18    11   ar
    37    21    19    1
    38     6    10    1
