@<TRIPOS>MOLECULE
*****
 39 43 0 0 0
SMALL
GASTEIGER

@<TRIPOS>ATOM
      1 N          63.4752   86.0890   12.7968 N.ar    1  UNL1       -0.3063
      2 C          62.8514   85.2219   11.7437 C.ar    1  UNL1        0.1240
      3 C          62.1905   86.1173   10.7378 C.ar    1  UNL1        0.1156
      4 C          62.4059   87.5376   11.1693 C.ar    1  UNL1        0.0966
      5 C          63.1999   87.5201   12.4418 C.ar    1  UNL1        0.1349
      6 C          63.5697   88.8097   13.1129 C.ar    1  UNL1        0.2819
      7 O          64.3636   88.7922   14.3854 O.2     1  UNL1       -0.2652
      8 N          63.1454   90.1167   12.5115 N.ar    1  UNL1       -0.2416
      9 C          62.3514   90.1342   11.2389 C.ar    1  UNL1        0.3342
     10 O          61.9272   91.4412   10.6375 O.2     1  UNL1       -0.2462
     11 N          61.9817   88.8446   10.5678 N.ar    1  UNL1       -0.2770
     12 C          61.1877   88.8621    9.2954 C.3     1  UNL1        0.1351
     13 N          62.8828   83.7228   11.7034 N.pl3   1  UNL1       -0.2926
     14 C          63.5551   83.0170   10.5633 C.3     1  UNL1        0.0922
     15 C          63.5866   81.5179   10.5231 C.3     1  UNL1        0.0229
     16 C          62.9457   80.7246   11.6230 C.3     1  UNL1        0.0190
     17 C          62.2734   81.4303   12.7631 C.3     1  UNL1        0.0709
     18 N          61.6326   80.6369   13.8631 N.3     1  UNL1       -0.3208
     19 C          62.2420   82.9294   12.8033 C.3     1  UNL1        0.1075
     20 H          61.7478   79.6409   13.6755 H       1  UNL1        0.1189
     21 H          60.6387   80.8613   13.9096 H       1  UNL1        0.1189
     22 C          61.4451   85.6706    9.5152 C.1     1  UNL1        0.1047
     23 N          60.6997   85.2240    8.2924 N.1     1  UNL1       -0.1907
     24 C          64.2401   85.6091   13.9946 C.3     1  UNL1        0.1332
     25 C          62.8294   86.2912   17.6407 C.3     1  UNL1        0.0261
     26 C          63.0495   85.6484   16.3035 C.2     1  UNL1       -0.0460
     27 C          62.2993   84.4020   15.9379 C.3     1  UNL1        0.0261
     28 C          64.0199   86.2519   15.3318 C.2     1  UNL1       -0.0102
     29 C          63.5151   91.4062   13.1826 C.3     1  UNL1        0.1609
     30 C          64.9581   91.7443   13.4144 C.ar    1  UNL1        0.1011
     31 C          65.8853   91.9146   12.2476 C.ar    1  UNL1        0.1154
     32 N          67.3282   92.2526   12.4794 N.ar    1  UNL1       -0.2410
     33 C          67.8440   92.4203   13.8780 C.ar    1  UNL1        0.0989
     34 C          69.2869   92.7583   14.1097 C.ar    1  UNL1        0.0206
     35 C          69.8026   92.9260   15.5082 C.ar    1  UNL1        0.0016
     36 C          68.8754   92.7557   16.6750 C.ar    1  UNL1        0.0016
     37 C          67.4325   92.4177   16.4432 C.ar    1  UNL1        0.0206
     38 C          66.9168   92.2500   15.0447 C.ar    1  UNL1        0.0986
     39 N          65.4738   91.9119   14.8129 N.ar    1  UNL1       -0.2446
@<TRIPOS>BOND
     1    25    26    1
     2    26    27    1
     3    26    28    2
     4    28    24    1
     5    24     1    1
     6     1     2   ar
     7     2    13    1
     8    13    14    1
     9    14    15    1
    10    15    16    1
    11    16    17    1
    12    17    18    1
    13    17    19    1
    14     2     3   ar
    15     3    22    1
    16    22    23    3
    17     3     4   ar
    18     4     5   ar
    19     5     6   ar
    20     6     7    2
    21     6     8   ar
    22     8    29    1
    23    29    30    1
    24    30    31   ar
    25    31    32   ar
    26    32    33   ar
    27    33    34   ar
    28    34    35   ar
    29    35    36   ar
    30    36    37   ar
    31    37    38   ar
    32    38    39   ar
    33     8     9   ar
    34     9    10    2
    35     9    11   ar
    36    11    12    1
    37     5     1   ar
    38    39    30   ar
    39    19    13    1
    40    11     4   ar
    41    38    33   ar
    42    18    20    1
    43    18    21    1
@<TRIPOS>MOLECULE
*****
 39 43 0 0 0
SMALL
GASTEIGER

@<TRIPOS>ATOM
      1 N          64.5274   91.5378   12.1475 N.ar    1  UNL1       -0.3063
      2 C          64.9036   91.4587   13.5974 C.ar    1  UNL1        0.1240
      3 C          63.7839   90.7814   14.3306 C.ar    1  UNL1        0.1156
      4 C          62.7157   90.4418   13.3337 C.ar    1  UNL1        0.0966
      5 C          63.1752   90.9093   11.9846 C.ar    1  UNL1        0.1349
      6 C          62.3029   90.7023   10.7819 C.ar    1  UNL1        0.2819
      7 O          62.7624   91.1697    9.4328 O.2     1  UNL1       -0.2652
      8 N          60.9712   90.0278   10.9285 N.ar    1  UNL1       -0.2416
      9 C          60.5117   89.5603   12.2777 C.ar    1  UNL1        0.3342
     10 O          59.1800   88.8858   12.4243 O.2     1  UNL1       -0.2462
     11 N          61.3839   89.7673   13.4803 N.ar    1  UNL1       -0.2770
     12 C          60.9245   89.2998   14.8295 C.3     1  UNL1        0.1351
     13 N          66.1761   91.9677   14.2072 N.pl3   1  UNL1       -0.2926
     14 C          66.1360   92.7351   15.4954 C.3     1  UNL1        0.0922
     15 C          67.4085   93.2440   16.1051 C.3     1  UNL1        0.0229
     16 C          68.7210   92.9855   15.4266 C.3     1  UNL1        0.0190
     17 C          68.7611   92.2182   14.1384 C.3     1  UNL1        0.0709
     18 N          70.0737   91.9597   13.4599 N.3     1  UNL1       -0.3208
     19 C          67.4887   91.7093   13.5287 C.3     1  UNL1        0.1075
     20 H          70.8274   92.3736   14.0086 H       1  UNL1        0.1189
     21 H          70.0629   92.3760   12.5288 H       1  UNL1        0.1189
     22 C          63.7401   90.4940   15.8021 C.1     1  UNL1        0.1047
     23 N          63.6963   90.2066   17.2737 N.1     1  UNL1       -0.1907
     24 C          65.3576   92.1397   11.0528 C.3     1  UNL1        0.1332
     25 C          66.8907   95.6858   10.1448 C.3     1  UNL1        0.0261
     26 C          66.6962   94.1998   10.2080 C.2     1  UNL1       -0.0460
     27 C          67.6461   93.2880    9.4894 C.3     1  UNL1        0.0261
     28 C          65.5520   93.6256   10.9896 C.2     1  UNL1       -0.0102
     29 C          60.0990   89.8207    9.7259 C.3     1  UNL1        0.1609
     30 C          60.2320   88.5694    8.9093 C.ar    1  UNL1        0.1011
     31 C          59.1294   88.1609    7.9780 C.ar    1  UNL1        0.1154
     32 N          59.2623   86.9096    7.1616 N.ar    1  UNL1       -0.2410
     33 C          60.4979   86.0669    7.2764 C.ar    1  UNL1        0.0989
     34 C          60.6309   84.8156    6.4599 C.ar    1  UNL1        0.0206
     35 C          61.8664   83.9730    6.5747 C.ar    1  UNL1        0.0016
     36 C          62.9691   84.3815    7.5060 C.ar    1  UNL1        0.0016
     37 C          62.8361   85.6328    8.3225 C.ar    1  UNL1        0.0206
     38 C          61.6005   86.4754    8.2077 C.ar    1  UNL1        0.0986
     39 N          61.4675   87.7267    9.0242 N.ar    1  UNL1       -0.2446
@<TRIPOS>BOND
     1    25    26    1
     2    26    27    1
     3    26    28    2
     4    28    24    1
     5    24     1    1
     6     1     2   ar
     7     2    13    1
     8    13    14    1
     9    14    15    1
    10    15    16    1
    11    16    17    1
    12    17    18    1
    13    17    19    1
    14     2     3   ar
    15     3    22    1
    16    22    23    3
    17     3     4   ar
    18     4     5   ar
    19     5     6   ar
    20     6     7    2
    21     6     8   ar
    22     8    29    1
    23    29    30    1
    24    30    31   ar
    25    31    32   ar
    26    32    33   ar
    27    33    34   ar
    28    34    35   ar
    29    35    36   ar
    30    36    37   ar
    31    37    38   ar
    32    38    39   ar
    33     8     9   ar
    34     9    10    2
    35     9    11   ar
    36    11    12    1
    37     5     1   ar
    38    39    30   ar
    39    19    13    1
    40    11     4   ar
    41    38    33   ar
    42    18    20    1
    43    18    21    1
@<TRIPOS>MOLECULE
*****
 39 43 0 0 0
SMALL
GASTEIGER

@<TRIPOS>ATOM
      1 N          62.7301   86.3899   11.3565 N.ar    1  UNL1       -0.3063
      2 C          63.0625   85.4360   12.4653 C.ar    1  UNL1        0.1240
      3 C          63.5699   86.2360   13.6284 C.ar    1  UNL1        0.1156
      4 C          63.5510   87.6842   13.2382 C.ar    1  UNL1        0.0966
      5 C          63.0320   87.7793   11.8341 C.ar    1  UNL1        0.1349
      6 C          62.9013   89.1189   11.1719 C.ar    1  UNL1        0.2819
      7 O          62.3823   89.2140    9.7679 O.2     1  UNL1       -0.2652
      8 N          63.2897   90.3634   11.9138 N.ar    1  UNL1       -0.2416
      9 C          63.8088   90.2683   13.3180 C.ar    1  UNL1        0.3342
     10 O          64.1972   91.5127   14.0599 O.2     1  UNL1       -0.2462
     11 N          63.9395   88.9287   13.9802 N.ar    1  UNL1       -0.2770
     12 C          64.4585   88.8336   15.3843 C.3     1  UNL1        0.1351
     13 N          62.9137   83.9441   12.4193 N.pl3   1  UNL1       -0.2926
     14 C          63.4566   83.1718   11.2536 C.3     1  UNL1        0.0922
     15 C          63.3078   81.6800   11.2077 C.3     1  UNL1        0.0229
     16 C          62.6161   80.9604   12.3274 C.3     1  UNL1        0.0190
     17 C          62.0733   81.7326   13.4931 C.3     1  UNL1        0.0709
     18 N          61.3816   81.0130   14.6128 N.3     1  UNL1       -0.3208
     19 C          62.2221   83.2245   13.5390 C.3     1  UNL1        0.1075
     20 H          61.3707   80.0118   14.4181 H       1  UNL1        0.1189
     21 H          60.4238   81.3538   14.6956 H       1  UNL1        0.1189
     22 C          64.0176   85.6846   14.9495 C.1     1  UNL1        0.1047
     23 N          64.4653   85.1331   16.2708 N.1     1  UNL1       -0.1907
     24 C          62.1904   86.0193   10.0068 C.3     1  UNL1        0.1332
     25 C          58.9734   86.6838    7.7800 C.3     1  UNL1        0.0261
     26 C          60.3315   86.2065    8.2015 C.2     1  UNL1       -0.0460
     27 C          61.1888   85.4391    7.2391 C.3     1  UNL1        0.0261
     28 C          60.8323   86.4966    9.5853 C.2     1  UNL1       -0.0102
     29 C          63.1591   91.7029   11.2517 C.3     1  UNL1        0.1609
     30 C          64.3831   92.4243   10.7705 C.ar    1  UNL1        0.1011
     31 C          65.6656   91.6730   10.5685 C.ar    1  UNL1        0.1154
     32 N          66.8896   92.3942   10.0874 N.ar    1  UNL1       -0.2410
     33 C          66.8311   93.8669    9.8081 C.ar    1  UNL1        0.0989
     34 C          68.0551   94.5882    9.3270 C.ar    1  UNL1        0.0206
     35 C          67.9966   96.0608    9.0478 C.ar    1  UNL1        0.0016
     36 C          66.7142   96.8121    9.2497 C.ar    1  UNL1        0.0016
     37 C          65.4902   96.0908    9.7309 C.ar    1  UNL1        0.0206
     38 C          65.5487   94.6182   10.0101 C.ar    1  UNL1        0.0986
     39 N          64.3246   93.8969   10.4913 N.ar    1  UNL1       -0.2446
@<TRIPOS>BOND
     1    25    26    1
     2    26    27    1
     3    26    28    2
     4    28    24    1
     5    24     1    1
     6     1     2   ar
     7     2    13    1
     8    13    14    1
     9    14    15    1
    10    15    16    1
    11    16    17    1
    12    17    18    1
    13    17    19    1
    14     2     3   ar
    15     3    22    1
    16    22    23    3
    17     3     4   ar
    18     4     5   ar
    19     5     6   ar
    20     6     7    2
    21     6     8   ar
    22     8    29    1
    23    29    30    1
    24    30    31   ar
    25    31    32   ar
    26    32    33   ar
    27    33    34   ar
    28    34    35   ar
    29    35    36   ar
    30    36    37   ar
    31    37    38   ar
    32    38    39   ar
    33     8     9   ar
    34     9    10    2
    35     9    11   ar
    36    11    12    1
    37     5     1   ar
    38    39    30   ar
    39    19    13    1
    40    11     4   ar
    41    38    33   ar
    42    18    20    1
    43    18    21    1
@<TRIPOS>MOLECULE
*****
 39 43 0 0 0
SMALL
GASTEIGER

@<TRIPOS>ATOM
      1 N          61.6362   88.5119   11.2491 N.ar    1  UNL1       -0.3063
      2 C          62.4197   87.2616   11.5187 C.ar    1  UNL1        0.1240
      3 C          62.2193   86.3301   10.3601 C.ar    1  UNL1        0.1156
      4 C          61.3120   87.0048    9.3746 C.ar    1  UNL1        0.0966
      5 C          60.9516   88.3532    9.9239 C.ar    1  UNL1        0.1349
      6 C          60.0466   89.2624    9.1465 C.ar    1  UNL1        0.2819
      7 O          59.6861   90.6108    9.6958 O.2     1  UNL1       -0.2652
      8 N          59.5020   88.8231    7.8197 N.ar    1  UNL1       -0.2416
      9 C          59.8624   87.4746    7.2703 C.ar    1  UNL1        0.3342
     10 O          59.3177   87.0354    5.9435 O.2     1  UNL1       -0.2462
     11 N          60.7674   86.5655    8.0477 N.ar    1  UNL1       -0.2770
     12 C          61.1278   85.2171    7.4983 C.3     1  UNL1        0.1351
     13 N          63.2567   86.9903   12.7336 N.pl3   1  UNL1       -0.2926
     14 C          63.8682   88.1302   13.4929 C.3     1  UNL1        0.0922
     15 C          64.7051   87.8589   14.7077 C.3     1  UNL1        0.0229
     16 C          64.9306   86.4476   15.1633 C.3     1  UNL1        0.0190
     17 C          64.3190   85.3077   14.4040 C.3     1  UNL1        0.0709
     18 N          64.5444   83.8964   14.8595 N.3     1  UNL1       -0.3208
     19 C          63.4821   85.5790   13.1892 C.3     1  UNL1        0.1075
     20 H          65.1317   83.8980   15.6935 H       1  UNL1        0.1189
     21 H          65.0074   83.3698   14.1187 H       1  UNL1        0.1189
     22 C          62.8207   84.9639   10.2131 C.1     1  UNL1        0.1047
     23 N          63.4221   83.5975   10.0659 N.1     1  UNL1       -0.1907
     24 C          61.5520   89.7105   12.1470 C.3     1  UNL1        0.1332
     25 C          64.8172   91.9480   11.8602 C.3     1  UNL1        0.0261
     26 C          63.5701   91.2055   11.4817 C.2     1  UNL1       -0.0460
     27 C          63.0940   91.2153   10.0593 C.3     1  UNL1        0.0261
     28 C          62.7991   90.4531   12.5255 C.2     1  UNL1       -0.0102
     29 C          58.5969   89.7323    7.0423 C.3     1  UNL1        0.1609
     30 C          59.1463   90.5482    5.9097 C.ar    1  UNL1        0.1011
     31 C          58.2675   91.5366    5.2021 C.ar    1  UNL1        0.1154
     32 N          58.8168   92.3524    4.0696 N.ar    1  UNL1       -0.2410
     33 C          60.2451   92.1799    3.6447 C.ar    1  UNL1        0.0989
     34 C          60.7944   92.9957    2.5122 C.ar    1  UNL1        0.0206
     35 C          62.2225   92.8232    2.0873 C.ar    1  UNL1        0.0016
     36 C          63.1014   91.8348    2.7950 C.ar    1  UNL1        0.0016
     37 C          62.5520   91.0189    3.9274 C.ar    1  UNL1        0.0206
     38 C          61.1239   91.1915    4.3523 C.ar    1  UNL1        0.0986
     39 N          60.5745   90.3756    5.4849 N.ar    1  UNL1       -0.2446
@<TRIPOS>BOND
     1    25    26    1
     2    26    27    1
     3    26    28    2
     4    28    24    1
     5    24     1    1
     6     1     2   ar
     7     2    13    1
     8    13    14    1
     9    14    15    1
    10    15    16    1
    11    16    17    1
    12    17    18    1
    13    17    19    1
    14     2     3   ar
    15     3    22    1
    16    22    23    3
    17     3     4   ar
    18     4     5   ar
    19     5     6   ar
    20     6     7    2
    21     6     8   ar
    22     8    29    1
    23    29    30    1
    24    30    31   ar
    25    31    32   ar
    26    32    33   ar
    27    33    34   ar
    28    34    35   ar
    29    35    36   ar
    30    36    37   ar
    31    37    38   ar
    32    38    39   ar
    33     8     9   ar
    34     9    10    2
    35     9    11   ar
    36    11    12    1
    37     5     1   ar
    38    39    30   ar
    39    19    13    1
    40    11     4   ar
    41    38    33   ar
    42    18    20    1
    43    18    21    1
@<TRIPOS>MOLECULE
*****
 39 43 0 0 0
SMALL
GASTEIGER

@<TRIPOS>ATOM
      1 N          64.6422   89.6585   13.7264 N.ar    1  UNL1       -0.3063
      2 C          65.2243   91.0235   13.5071 C.ar    1  UNL1        0.1240
      3 C          64.6703   91.5626   12.2216 C.ar    1  UNL1        0.1156
      4 C          63.7458   90.5309   11.6465 C.ar    1  UNL1        0.0966
      5 C          63.7284   89.3541   12.5765 C.ar    1  UNL1        0.1349
      6 C          62.8827   88.1574   12.2560 C.ar    1  UNL1        0.2819
      7 O          62.8653   86.9806   13.1859 O.2     1  UNL1       -0.2652
      8 N          62.0545   88.1375   11.0056 N.ar    1  UNL1       -0.2416
      9 C          62.0719   89.3143   10.0756 C.ar    1  UNL1        0.3342
     10 O          61.2436   89.2943    8.8252 O.2     1  UNL1       -0.2462
     11 N          62.9175   90.5110   10.3960 N.ar    1  UNL1       -0.2770
     12 C          62.9350   91.6878    9.4661 C.3     1  UNL1        0.1351
     13 N          66.1908   91.7259   14.4141 N.pl3   1  UNL1       -0.2926
     14 C          65.7203   92.2815   15.7255 C.3     1  UNL1        0.0922
     15 C          66.6868   92.9840   16.6324 C.3     1  UNL1        0.0229
     16 C          68.1237   93.1308   16.2278 C.3     1  UNL1        0.0190
     17 C          68.5942   92.5752   14.9164 C.3     1  UNL1        0.0709
     18 N          70.0311   92.7220   14.5119 N.3     1  UNL1       -0.3208
     19 C          67.6277   91.8728   14.0095 C.3     1  UNL1        0.1075
     20 H          70.5404   93.2210   15.2413 H       1  UNL1        0.1189
     21 H          70.0867   93.2466   13.6388 H       1  UNL1        0.1189
     22 C          64.9855   92.8989   11.6174 C.1     1  UNL1        0.1047
     23 N          65.3008   94.2352   11.0132 N.1     1  UNL1       -0.1907
     24 C          64.9243   88.7564   14.8911 C.3     1  UNL1        0.1332
     25 C          62.5173   86.9592   17.4847 C.3     1  UNL1        0.0261
     26 C          63.5597   87.1650   16.4258 C.2     1  UNL1       -0.0460
     27 C          64.2798   85.9853   15.8429 C.3     1  UNL1        0.0261
     28 C          63.8819   88.5505   15.9499 C.2     1  UNL1       -0.0102
     29 C          61.2088   86.9407   10.6851 C.3     1  UNL1        0.1609
     30 C          61.8330   85.5786   10.6142 C.ar    1  UNL1        0.1011
     31 C          62.5634   85.1519    9.3755 C.ar    1  UNL1        0.1154
     32 N          63.1875   83.7898    9.3045 N.ar    1  UNL1       -0.2410
     33 C          63.0814   82.8543   10.4723 C.ar    1  UNL1        0.0989
     34 C          63.7056   81.4922   10.4014 C.ar    1  UNL1        0.0206
     35 C          63.5994   80.5569   11.5692 C.ar    1  UNL1        0.0016
     36 C          62.8691   80.9836   12.8079 C.ar    1  UNL1        0.0016
     37 C          62.2449   82.3457   12.8789 C.ar    1  UNL1        0.0206
     38 C          62.3511   83.2810   11.7111 C.ar    1  UNL1        0.0986
     39 N          61.7269   84.6432   11.7820 N.ar    1  UNL1       -0.2446
@<TRIPOS>BOND
     1    25    26    1
     2    26    27    1
     3    26    28    2
     4    28    24    1
     5    24     1    1
     6     1     2   ar
     7     2    13    1
     8    13    14    1
     9    14    15    1
    10    15    16    1
    11    16    17    1
    12    17    18    1
    13    17    19    1
    14     2     3   ar
    15     3    22    1
    16    22    23    3
    17     3     4   ar
    18     4     5   ar
    19     5     6   ar
    20     6     7    2
    21     6     8   ar
    22     8    29    1
    23    29    30    1
    24    30    31   ar
    25    31    32   ar
    26    32    33   ar
    27    33    34   ar
    28    34    35   ar
    29    35    36   ar
    30    36    37   ar
    31    37    38   ar
    32    38    39   ar
    33     8     9   ar
    34     9    10    2
    35     9    11   ar
    36    11    12    1
    37     5     1   ar
    38    39    30   ar
    39    19    13    1
    40    11     4   ar
    41    38    33   ar
    42    18    20    1
    43    18    21    1
@<TRIPOS>MOLECULE
*****
 39 43 0 0 0
SMALL
GASTEIGER

@<TRIPOS>ATOM
      1 N          60.2413   93.9718   -0.4251 N.ar    1  UNL1       -0.3063
      2 C          61.3917   93.5912    0.4589 C.ar    1  UNL1        0.1240
      3 C          62.6582   94.0330   -0.2126 C.ar    1  UNL1        0.1156
      4 C          62.2904   94.6867   -1.5115 C.ar    1  UNL1        0.0966
      5 C          60.7966   94.6489   -1.6429 C.ar    1  UNL1        0.1349
      6 C          60.1352   95.2358   -2.8545 C.ar    1  UNL1        0.2819
      7 O          58.6414   95.1980   -2.9858 O.2     1  UNL1       -0.2652
      8 N          60.9674   95.8607   -3.9347 N.ar    1  UNL1       -0.2416
      9 C          62.4612   95.8985   -3.8034 C.ar    1  UNL1        0.3342
     10 O          63.2935   96.5233   -4.8836 O.2     1  UNL1       -0.2462
     11 N          63.1227   95.3115   -2.5918 N.ar    1  UNL1       -0.2770
     12 C          64.6164   95.3494   -2.4604 C.3     1  UNL1        0.1351
     13 N          61.2932   92.8915    1.7822 N.pl3   1  UNL1       -0.2926
     14 C          62.4037   91.9934    2.2403 C.3     1  UNL1        0.0922
     15 C          62.3051   91.2938    3.5634 C.3     1  UNL1        0.0229
     16 C          61.0959   91.4924    4.4285 C.3     1  UNL1        0.0190
     17 C          59.9853   92.3905    3.9704 C.3     1  UNL1        0.0709
     18 N          58.7761   92.5890    4.8355 N.3     1  UNL1       -0.3208
     19 C          60.0839   93.0901    2.6472 C.3     1  UNL1        0.1075
     20 H          58.8766   92.0426    5.6909 H       1  UNL1        0.1189
     21 H          57.9437   92.2823    4.3319 H       1  UNL1        0.1189
     22 C          64.0484   93.8528    0.3212 C.1     1  UNL1        0.1047
     23 N          65.4386   93.6726    0.8550 N.1     1  UNL1       -0.1907
     24 C          58.7901   93.7196   -0.1411 C.3     1  UNL1        0.1332
     25 C          55.9921   91.7479   -2.1495 C.3     1  UNL1        0.0261
     26 C          56.7132   92.8565   -1.4417 C.2     1  UNL1       -0.0460
     27 C          56.0784   94.2107   -1.3267 C.3     1  UNL1        0.0261
     28 C          58.0690   92.6110   -0.8489 C.2     1  UNL1       -0.0102
     29 C          60.3059   96.4476   -5.1463 C.3     1  UNL1        0.1609
     30 C          59.0605   95.8201   -5.6989 C.ar    1  UNL1        0.1011
     31 C          57.8813   96.6777   -6.0509 C.ar    1  UNL1        0.1154
     32 N          56.6360   96.0503   -6.6035 N.ar    1  UNL1       -0.2410
     33 C          56.5698   94.5652   -6.8040 C.ar    1  UNL1        0.0989
     34 C          55.3244   93.9378   -7.3566 C.ar    1  UNL1        0.0206
     35 C          55.2583   92.4528   -7.5571 C.ar    1  UNL1        0.0016
     36 C          56.4375   91.5952   -7.2051 C.ar    1  UNL1        0.0016
     37 C          57.6828   92.2226   -6.6525 C.ar    1  UNL1        0.0206
     38 C          57.7490   93.7076   -6.4520 C.ar    1  UNL1        0.0986
     39 N          58.9944   94.3351   -5.8994 N.ar    1  UNL1       -0.2446
@<TRIPOS>BOND
     1    25    26    1
     2    26    27    1
     3    26    28    2
     4    28    24    1
     5    24     1    1
     6     1     2   ar
     7     2    13    1
     8    13    14    1
     9    14    15    1
    10    15    16    1
    11    16    17    1
    12    17    18    1
    13    17    19    1
    14     2     3   ar
    15     3    22    1
    16    22    23    3
    17     3     4   ar
    18     4     5   ar
    19     5     6   ar
    20     6     7    2
    21     6     8   ar
    22     8    29    1
    23    29    30    1
    24    30    31   ar
    25    31    32   ar
    26    32    33   ar
    27    33    34   ar
    28    34    35   ar
    29    35    36   ar
    30    36    37   ar
    31    37    38   ar
    32    38    39   ar
    33     8     9   ar
    34     9    10    2
    35     9    11   ar
    36    11    12    1
    37     5     1   ar
    38    39    30   ar
    39    19    13    1
    40    11     4   ar
    41    38    33   ar
    42    18    20    1
    43    18    21    1
@<TRIPOS>MOLECULE
*****
 39 43 0 0 0
SMALL
GASTEIGER

@<TRIPOS>ATOM
      1 N          62.7392   86.3876   11.3677 N.ar    1  UNL1       -0.3063
      2 C          63.0707   85.4187   12.4637 C.ar    1  UNL1        0.1240
      3 C          63.5472   86.2049   13.6490 C.ar    1  UNL1        0.1156
      4 C          63.5102   87.6597   13.2854 C.ar    1  UNL1        0.0966
      5 C          63.0108   87.7726   11.8755 C.ar    1  UNL1        0.1349
      6 C          62.8680   89.1220   11.2362 C.ar    1  UNL1        0.2819
      7 O          62.3686   89.2349    9.8263 O.2     1  UNL1       -0.2652
      8 N          63.2245   90.3585   12.0068 N.ar    1  UNL1       -0.2416
      9 C          63.7239   90.2457   13.4168 C.ar    1  UNL1        0.3342
     10 O          64.0804   91.4822   14.1874 O.2     1  UNL1       -0.2462
     11 N          63.8667   88.8963   14.0561 N.ar    1  UNL1       -0.2770
     12 C          64.3661   88.7834   15.4659 C.3     1  UNL1        0.1351
     13 N          62.9473   83.9257   12.3879 N.pl3   1  UNL1       -0.2926
     14 C          63.4160   83.1956   11.1642 C.3     1  UNL1        0.0922
     15 C          63.2926   81.7026   11.0885 C.3     1  UNL1        0.0229
     16 C          62.7006   80.9397   12.2363 C.3     1  UNL1        0.0190
     17 C          62.2320   81.6698   13.4600 C.3     1  UNL1        0.0709
     18 N          61.6401   80.9069   14.6078 N.3     1  UNL1       -0.3208
     19 C          62.3554   83.1628   13.5357 C.3     1  UNL1        0.1075
     20 H          61.6337   79.9111   14.3870 H       1  UNL1        0.1189
     21 H          60.6848   81.2251   14.7710 H       1  UNL1        0.1189
     22 C          63.9840   85.6362   14.9664 C.1     1  UNL1        0.1047
     23 N          64.4209   85.0676   16.2840 N.1     1  UNL1       -0.1907
     24 C          62.2261   86.0336   10.0033 C.3     1  UNL1        0.1332
     25 C          59.0177   86.6549    7.7517 C.3     1  UNL1        0.0261
     26 C          60.3769   86.1917    8.1853 C.2     1  UNL1       -0.0460
     27 C          61.2460   85.4233    7.2344 C.3     1  UNL1        0.0261
     28 C          60.8670   86.4968    9.5697 C.2     1  UNL1       -0.0102
     29 C          63.0816   91.7080   11.3675 C.3     1  UNL1        0.1609
     30 C          64.2937   92.4258   10.8521 C.ar    1  UNL1        0.1011
     31 C          64.2622   93.9142   10.6682 C.ar    1  UNL1        0.1154
     32 N          65.4742   94.6320   10.1529 N.ar    1  UNL1       -0.2410
     33 C          66.7178   93.8615    9.8214 C.ar    1  UNL1        0.0989
     34 C          67.9299   94.5794    9.3060 C.ar    1  UNL1        0.0206
     35 C          69.1734   93.8089    8.9745 C.ar    1  UNL1        0.0016
     36 C          69.2049   92.3205    9.1584 C.ar    1  UNL1        0.0016
     37 C          67.9929   91.6027    9.6738 C.ar    1  UNL1        0.0206
     38 C          66.7494   92.3732   10.0053 C.ar    1  UNL1        0.0986
     39 N          65.5372   91.6553   10.5207 N.ar    1  UNL1       -0.2446
@<TRIPOS>BOND
     1    25    26    1
     2    26    27    1
     3    26    28    2
     4    28    24    1
     5    24     1    1
     6     1     2   ar
     7     2    13    1
     8    13    14    1
     9    14    15    1
    10    15    16    1
    11    16    17    1
    12    17    18    1
    13    17    19    1
    14     2     3   ar
    15     3    22    1
    16    22    23    3
    17     3     4   ar
    18     4     5   ar
    19     5     6   ar
    20     6     7    2
    21     6     8   ar
    22     8    29    1
    23    29    30    1
    24    30    31   ar
    25    31    32   ar
    26    32    33   ar
    27    33    34   ar
    28    34    35   ar
    29    35    36   ar
    30    36    37   ar
    31    37    38   ar
    32    38    39   ar
    33     8     9   ar
    34     9    10    2
    35     9    11   ar
    36    11    12    1
    37     5     1   ar
    38    39    30   ar
    39    19    13    1
    40    11     4   ar
    41    38    33   ar
    42    18    20    1
    43    18    21    1
@<TRIPOS>MOLECULE
*****
 39 43 0 0 0
SMALL
GASTEIGER

@<TRIPOS>ATOM
      1 N          64.4941   90.0891   13.7572 N.ar    1  UNL1       -0.3063
      2 C          65.3380   91.2896   13.4464 C.ar    1  UNL1        0.1240
      3 C          64.8682   91.8611   12.1415 C.ar    1  UNL1        0.1156
      4 C          63.7340   91.0137   11.6459 C.ar    1  UNL1        0.0966
      5 C          63.5028   89.9186   12.6445 C.ar    1  UNL1        0.1349
      6 C          62.4194   88.9077   12.4115 C.ar    1  UNL1        0.2819
      7 O          62.1882   87.8125   13.4100 O.2     1  UNL1       -0.2652
      8 N          61.5673   88.9918   11.1799 N.ar    1  UNL1       -0.2416
      9 C          61.7986   90.0870   10.1813 C.ar    1  UNL1        0.3342
     10 O          60.9465   90.1711    8.9497 O.2     1  UNL1       -0.2462
     11 N          62.8819   91.0979   10.4143 N.ar    1  UNL1       -0.2770
     12 C          63.1132   92.1931    9.4157 C.3     1  UNL1        0.1351
     13 N          66.4554   91.8247   14.2920 N.pl3   1  UNL1       -0.2926
     14 C          66.1682   92.3597   15.6636 C.3     1  UNL1        0.0922
     15 C          67.2856   92.8947   16.5091 C.3     1  UNL1        0.0229
     16 C          68.6903   92.8949   15.9830 C.3     1  UNL1        0.0190
     17 C          68.9776   92.3600   14.6114 C.3     1  UNL1        0.0709
     18 N          70.3823   92.3601   14.0854 N.3     1  UNL1       -0.3208
     19 C          67.8602   91.8249   13.7659 C.3     1  UNL1        0.1075
     20 H          71.0080   92.7562   14.7868 H       1  UNL1        0.1189
     21 H          70.4267   92.9210   13.2346 H       1  UNL1        0.1189
     22 C          65.4334   93.0680   11.4530 C.1     1  UNL1        0.1047
     23 N          65.9988   94.2749   10.7646 N.1     1  UNL1       -0.1907
     24 C          64.6194   89.2129   14.9682 C.3     1  UNL1        0.1332
     25 C          63.9469   85.3598   15.6400 C.3     1  UNL1        0.0261
     26 C          63.9172   86.8516   15.7936 C.2     1  UNL1       -0.0460
     27 C          63.1554   87.4740   16.9260 C.3     1  UNL1        0.0261
     28 C          64.6492   87.7211   14.8147 C.2     1  UNL1       -0.0102
     29 C          60.4840   87.9808   10.9469 C.3     1  UNL1        0.1609
     30 C          60.4845   87.1563    9.6938 C.ar    1  UNL1        0.1011
     31 C          59.2229   87.0017    8.8972 C.ar    1  UNL1        0.1154
     32 N          59.2234   86.1772    7.6442 N.ar    1  UNL1       -0.2410
     33 C          60.4855   85.5073    7.1876 C.ar    1  UNL1        0.0989
     34 C          60.4859   84.6828    5.9345 C.ar    1  UNL1        0.0206
     35 C          61.7480   84.0130    5.4781 C.ar    1  UNL1        0.0016
     36 C          63.0096   84.1675    6.2746 C.ar    1  UNL1        0.0016
     37 C          63.0091   84.9920    7.5277 C.ar    1  UNL1        0.0206
     38 C          61.7471   85.6619    7.9842 C.ar    1  UNL1        0.0986
     39 N          61.7466   86.4864    9.2373 N.ar    1  UNL1       -0.2446
@<TRIPOS>BOND
     1    25    26    1
     2    26    27    1
     3    26    28    2
     4    28    24    1
     5    24     1    1
     6     1     2   ar
     7     2    13    1
     8    13    14    1
     9    14    15    1
    10    15    16    1
    11    16    17    1
    12    17    18    1
    13    17    19    1
    14     2     3   ar
    15     3    22    1
    16    22    23    3
    17     3     4   ar
    18     4     5   ar
    19     5     6   ar
    20     6     7    2
    21     6     8   ar
    22     8    29    1
    23    29    30    1
    24    30    31   ar
    25    31    32   ar
    26    32    33   ar
    27    33    34   ar
    28    34    35   ar
    29    35    36   ar
    30    36    37   ar
    31    37    38   ar
    32    38    39   ar
    33     8     9   ar
    34     9    10    2
    35     9    11   ar
    36    11    12    1
    37     5     1   ar
    38    39    30   ar
    39    19    13    1
    40    11     4   ar
    41    38    33   ar
    42    18    20    1
    43    18    21    1
