@<TRIPOS>MOLECULE
*****
 32 36 0 0 0
SMALL
GASTEIGER

@<TRIPOS>ATOM
      1 C          66.3955   92.7207   12.6150 C.ar    1  UNL1        0.0436
      2 C          67.3858   92.7304   13.7416 C.ar    1  UNL1        0.0142
      3 C          67.2015   91.8083   14.9102 C.ar    1  UNL1        0.0010
      4 C          66.0268   90.8764   14.9522 C.ar    1  UNL1       -0.0032
      5 C          65.0365   90.8667   13.8257 C.ar    1  UNL1       -0.0091
      6 C          65.2208   91.7888   12.6571 C.ar    1  UNL1       -0.0101
      7 C          64.2304   91.7791   11.5305 C.3     1  UNL1        0.0444
      8 C          63.0558   90.8472   11.5726 C.3     1  UNL1        0.0749
      9 N          62.8715   89.9251   12.7413 N.3     1  UNL1       -0.2934
     10 C          63.8618   89.9348   13.8678 C.3     1  UNL1        0.0954
     11 H          62.8592   88.9758   12.3683 H       1  UNL1        0.1236
     12 N          66.9483   95.4871    9.1091 N.3     1  UNL1       -0.2698
     13 C          67.3886   94.0564    9.0122 C.3     1  UNL1        0.0938
     14 C          67.2043   93.1343   10.1809 C.3     1  UNL1        0.1081
     15 N          66.5798   93.6428   11.4463 N.pl3   1  UNL1       -0.3049
     16 C          66.1395   95.0735   11.5432 C.3     1  UNL1        0.1081
     17 C          66.3238   95.9956   10.3746 C.3     1  UNL1        0.0938
     18 C          65.9435   96.8557    7.1427 C.3     1  UNL1        0.0188
     19 C          67.1326   96.4092    7.9405 C.3     1  UNL1        0.0722
     20 C          62.0654   90.8374   10.4461 C.3     1  UNL1        0.0886
     21 N          60.8179   90.0113   10.5514 N.3     1  UNL1       -0.2667
     22 C          59.7150   90.4329   11.4767 C.3     1  UNL1        0.0899
     23 C          60.6731   88.7637    9.7314 C.3     1  UNL1        0.0978
     24 C          59.8977   88.7956    8.4477 C.3     1  UNL1        0.0224
     25 C          59.7530   87.5479    7.6277 C.3     1  UNL1        0.0065
     26 C          60.3835   86.2683    8.0914 C.3     1  UNL1        0.0277
     27 C          61.1588   86.2364    9.3751 C.ar    1  UNL1       -0.0073
     28 C          61.7893   84.9568    9.8388 C.ar    1  UNL1       -0.0015
     29 C          62.5647   84.9248   11.1225 C.ar    1  UNL1        0.0203
     30 C          62.7095   86.1725   11.9425 C.ar    1  UNL1        0.0985
     31 N          62.0789   87.4521   11.4788 N.ar    1  UNL1       -0.2471
     32 C          61.3036   87.4841   10.1951 C.ar    1  UNL1        0.0695
@<TRIPOS>BOND
     1    18    19    1
     2    19    12    1
     3    12    13    1
     4    13    14    1
     5    14    15    1
     6    15     1    1
     7     1     2   ar
     8     2     3   ar
     9     3     4   ar
    10     4     5   ar
    11     5     6   ar
    12     6     7    1
    13     7     8    1
    14     8    20    1
    15    20    21    1
    16    21    22    1
    17    23    21    1
    18    23    24    1
    19    24    25    1
    20    25    26    1
    21    26    27    1
    22    27    28   ar
    23    28    29   ar
    24    29    30   ar
    25    30    31   ar
    26    31    32   ar
    27     8     9    1
    28     9    10    1
    29    15    16    1
    30    16    17    1
    31    17    12    1
    32     6     1   ar
    33    32    23    1
    34    10     5    1
    35    32    27   ar
    36     9    11    1
@<TRIPOS>MOLECULE
*****
 32 36 0 0 0
SMALL
GASTEIGER

@<TRIPOS>ATOM
      1 C          63.4610   84.4779   12.1420 C.ar    1  UNL1        0.0436
      2 C          64.3610   83.3296   11.7935 C.ar    1  UNL1        0.0142
      3 C          64.5484   82.9321   10.3594 C.ar    1  UNL1        0.0010
      4 C          63.8359   83.6829    9.2737 C.ar    1  UNL1       -0.0032
      5 C          62.9359   84.8311    9.6222 C.ar    1  UNL1       -0.0091
      6 C          62.7485   85.2286   11.0563 C.ar    1  UNL1       -0.0101
      7 C          61.8484   86.3770   11.4048 C.3     1  UNL1        0.0444
      8 C          61.1359   87.1277   10.3191 C.3     1  UNL1        0.0749
      9 N          61.3234   86.7301    8.8849 N.3     1  UNL1       -0.2934
     10 C          62.2234   85.5819    8.5365 C.3     1  UNL1        0.0954
     11 H          61.6884   87.5486    8.3978 H       1  UNL1        0.1236
     12 N          62.8983   85.6705   16.4445 N.3     1  UNL1       -0.2698
     13 C          63.9045   86.3866   15.5932 C.3     1  UNL1        0.0938
     14 C          64.0920   85.9891   14.1590 C.3     1  UNL1        0.1081
     15 N          63.2734   84.8755   13.5762 N.pl3   1  UNL1       -0.3049
     16 C          62.2673   84.1594   14.4275 C.3     1  UNL1        0.1081
     17 C          62.0797   84.5569   15.8617 C.3     1  UNL1        0.0938
     18 C          62.7904   87.5131   18.2729 C.3     1  UNL1        0.0188
     19 C          62.7108   86.0680   17.8786 C.3     1  UNL1        0.0722
     20 C          60.2359   88.2760   10.6676 C.3     1  UNL1        0.0886
     21 N          60.6532   89.2648   11.7155 N.3     1  UNL1       -0.2667
     22 C          59.8252   89.4392   12.9542 C.3     1  UNL1        0.0899
     23 C          61.8983   90.0791   11.5249 C.3     1  UNL1        0.0978
     24 C          62.2145   90.6621   10.1794 C.3     1  UNL1        0.0224
     25 C          63.4597   91.4765    9.9888 C.3     1  UNL1        0.0065
     26 C          64.3887   91.7078   11.1435 C.3     1  UNL1        0.0277
     27 C          64.0726   91.1248   12.4889 C.ar    1  UNL1       -0.0073
     28 C          65.0016   91.3562   13.6437 C.ar    1  UNL1       -0.0015
     29 C          64.6854   90.7731   14.9891 C.ar    1  UNL1        0.0203
     30 C          63.4402   89.9588   15.1797 C.ar    1  UNL1        0.0985
     31 N          62.5112   89.7275   14.0250 N.ar    1  UNL1       -0.2471
     32 C          62.8273   90.3104   12.6796 C.ar    1  UNL1        0.0695
@<TRIPOS>BOND
     1    18    19    1
     2    19    12    1
     3    12    13    1
     4    13    14    1
     5    14    15    1
     6    15     1    1
     7     1     2   ar
     8     2     3   ar
     9     3     4   ar
    10     4     5   ar
    11     5     6   ar
    12     6     7    1
    13     7     8    1
    14     8    20    1
    15    20    21    1
    16    21    22    1
    17    23    21    1
    18    23    24    1
    19    24    25    1
    20    25    26    1
    21    26    27    1
    22    27    28   ar
    23    28    29   ar
    24    29    30   ar
    25    30    31   ar
    26    31    32   ar
    27     8     9    1
    28     9    10    1
    29    15    16    1
    30    16    17    1
    31    17    12    1
    32     6     1   ar
    33    32    23    1
    34    10     5    1
    35    32    27   ar
    36     9    11    1
@<TRIPOS>MOLECULE
*****
 32 36 0 0 0
SMALL
GASTEIGER

@<TRIPOS>ATOM
      1 C          65.3730   91.5805   14.5243 C.ar    1  UNL1        0.0436
      2 C          66.3598   92.3306   15.3690 C.ar    1  UNL1        0.0142
      3 C          67.0941   93.5073   14.7981 C.ar    1  UNL1        0.0010
      4 C          66.8417   93.9340   13.3824 C.ar    1  UNL1       -0.0032
      5 C          65.8549   93.1839   12.5376 C.ar    1  UNL1       -0.0091
      6 C          65.1206   92.0072   13.1086 C.ar    1  UNL1       -0.0101
      7 C          64.1337   91.2571   12.2638 C.3     1  UNL1        0.0444
      8 C          63.8813   91.6837   10.8481 C.3     1  UNL1        0.0749
      9 N          64.6157   92.8605   10.2771 N.3     1  UNL1       -0.2934
     10 C          65.6024   93.6106   11.1219 C.3     1  UNL1        0.0954
     11 H          63.9087   93.5340    9.9822 H       1  UNL1        0.1236
     12 N          63.1699   88.0501   16.2370 N.3     1  UNL1       -0.2698
     13 C          62.9780   89.4141   16.8310 C.3     1  UNL1        0.0938
     14 C          63.7124   90.5909   16.2601 C.3     1  UNL1        0.1081
     15 N          64.6386   90.4037   15.0952 N.pl3   1  UNL1       -0.3049
     16 C          64.8305   89.0398   14.5012 C.3     1  UNL1        0.1081
     17 C          64.0962   87.8630   15.0721 C.3     1  UNL1        0.0938
     18 C          62.6972   86.4390   18.2196 C.3     1  UNL1        0.0188
     19 C          62.4356   86.8734   16.8079 C.3     1  UNL1        0.0722
     20 C          62.8945   90.9337   10.0033 C.3     1  UNL1        0.0886
     21 N          61.7886   90.1564   10.6536 N.3     1  UNL1       -0.2667
     22 C          60.7441   90.8697   11.4600 C.3     1  UNL1        0.0899
     23 C          61.7272   88.6658   10.4974 C.3     1  UNL1        0.0978
     24 C          62.5111   87.7819   11.4216 C.3     1  UNL1        0.0224
     25 C          62.4496   86.2913   11.2655 C.3     1  UNL1        0.0065
     26 C          61.6043   85.6846   10.1850 C.3     1  UNL1        0.0277
     27 C          60.8204   86.5685    9.2608 C.ar    1  UNL1       -0.0073
     28 C          59.9751   85.9618    8.1804 C.ar    1  UNL1       -0.0015
     29 C          59.1912   86.8457    7.2561 C.ar    1  UNL1        0.0203
     30 C          59.2526   88.3363    7.4123 C.ar    1  UNL1        0.0985
     31 N          60.0979   88.9430    8.4927 N.ar    1  UNL1       -0.2471
     32 C          60.8818   88.0591    9.4170 C.ar    1  UNL1        0.0695
@<TRIPOS>BOND
     1    18    19    1
     2    19    12    1
     3    12    13    1
     4    13    14    1
     5    14    15    1
     6    15     1    1
     7     1     2   ar
     8     2     3   ar
     9     3     4   ar
    10     4     5   ar
    11     5     6   ar
    12     6     7    1
    13     7     8    1
    14     8    20    1
    15    20    21    1
    16    21    22    1
    17    23    21    1
    18    23    24    1
    19    24    25    1
    20    25    26    1
    21    26    27    1
    22    27    28   ar
    23    28    29   ar
    24    29    30   ar
    25    30    31   ar
    26    31    32   ar
    27     8     9    1
    28     9    10    1
    29    15    16    1
    30    16    17    1
    31    17    12    1
    32     6     1   ar
    33    32    23    1
    34    10     5    1
    35    32    27   ar
    36     9    11    1
@<TRIPOS>MOLECULE
*****
 32 36 0 0 0
SMALL
GASTEIGER

@<TRIPOS>ATOM
      1 C          64.7751   90.7967   13.8453 C.ar    1  UNL1        0.0436
      2 C          65.8627   91.7120   14.3241 C.ar    1  UNL1        0.0142
      3 C          66.3817   92.7946   13.4249 C.ar    1  UNL1        0.0010
      4 C          65.8130   92.9620   12.0470 C.ar    1  UNL1       -0.0032
      5 C          64.7254   92.0467   11.5682 C.ar    1  UNL1       -0.0091
      6 C          64.2065   90.9640   12.4674 C.ar    1  UNL1       -0.0101
      7 C          63.1188   90.0486   11.9886 C.3     1  UNL1        0.0444
      8 C          62.5502   90.2160   10.6107 C.3     1  UNL1        0.0749
      9 N          63.0692   91.2987    9.7115 N.3     1  UNL1       -0.2934
     10 C          64.1568   92.2140   10.1903 C.3     1  UNL1        0.0954
     11 H          62.2726   91.8886    9.4708 H       1  UNL1        0.1236
     12 N          63.2180   87.5486   16.5427 N.3     1  UNL1       -0.2698
     13 C          64.0345   87.1937   15.3354 C.3     1  UNL1        0.0938
     14 C          64.5535   88.2764   14.4363 C.3     1  UNL1        0.1081
     15 N          64.2561   89.7139   14.7444 N.pl3   1  UNL1       -0.3049
     16 C          63.4396   90.0688   15.9517 C.3     1  UNL1        0.1081
     17 C          62.9206   88.9862   16.8508 C.3     1  UNL1        0.0938
     18 C          62.3933   85.1084   16.8818 C.3     1  UNL1        0.0188
     19 C          62.6990   86.4659   17.4418 C.3     1  UNL1        0.0722
     20 C          61.4626   89.3007   10.1319 C.3     1  UNL1        0.0886
     21 N          61.2949   87.9458   10.7532 N.3     1  UNL1       -0.2667
     22 C          60.4294   87.7791   11.9670 C.3     1  UNL1        0.0899
     23 C          61.9928   86.7575   10.1608 C.3     1  UNL1        0.0978
     24 C          62.2320   86.6887    8.6816 C.3     1  UNL1        0.0224
     25 C          62.9299   85.5004    8.0892 C.3     1  UNL1        0.0065
     26 C          63.3885   84.3809    8.9759 C.3     1  UNL1        0.0277
     27 C          63.1493   84.4497   10.4551 C.ar    1  UNL1       -0.0073
     28 C          63.6079   83.3302   11.3419 C.ar    1  UNL1       -0.0015
     29 C          63.3686   83.3990   12.8211 C.ar    1  UNL1        0.0203
     30 C          62.6708   84.5872   13.4135 C.ar    1  UNL1        0.0985
     31 N          62.2122   85.7067   12.5268 N.ar    1  UNL1       -0.2471
     32 C          62.4514   85.6380   11.0476 C.ar    1  UNL1        0.0695
@<TRIPOS>BOND
     1    18    19    1
     2    19    12    1
     3    12    13    1
     4    13    14    1
     5    14    15    1
     6    15     1    1
     7     1     2   ar
     8     2     3   ar
     9     3     4   ar
    10     4     5   ar
    11     5     6   ar
    12     6     7    1
    13     7     8    1
    14     8    20    1
    15    20    21    1
    16    21    22    1
    17    23    21    1
    18    23    24    1
    19    24    25    1
    20    25    26    1
    21    26    27    1
    22    27    28   ar
    23    28    29   ar
    24    29    30   ar
    25    30    31   ar
    26    31    32   ar
    27     8     9    1
    28     9    10    1
    29    15    16    1
    30    16    17    1
    31    17    12    1
    32     6     1   ar
    33    32    23    1
    34    10     5    1
    35    32    27   ar
    36     9    11    1
@<TRIPOS>MOLECULE
*****
 32 36 0 0 0
SMALL
GASTEIGER

@<TRIPOS>ATOM
      1 C          61.2301   86.3985    9.3596 C.ar    1  UNL1        0.0436
      2 C          60.6067   85.9838    8.0598 C.ar    1  UNL1        0.0142
      3 C          59.7696   86.9579    7.2851 C.ar    1  UNL1        0.0010
      4 C          59.5559   88.3467    7.8100 C.ar    1  UNL1       -0.0032
      5 C          60.1794   88.7614    9.1098 C.ar    1  UNL1       -0.0091
      6 C          61.0165   87.7873    9.8845 C.ar    1  UNL1       -0.0101
      7 C          61.6399   88.2019   11.1843 C.3     1  UNL1        0.0444
      8 C          61.4262   89.5907   11.7093 C.3     1  UNL1        0.0749
      9 N          60.5891   90.5649   10.9345 N.3     1  UNL1       -0.2934
     10 C          59.9657   90.1502    9.6347 C.3     1  UNL1        0.0954
     11 H          61.1836   91.3687   10.7326 H       1  UNL1        0.1236
     12 N          63.7416   83.4761   11.6840 N.3     1  UNL1       -0.2698
     13 C          62.7375   84.3339   12.3954 C.3     1  UNL1        0.0938
     14 C          61.9004   85.3081   11.6205 C.3     1  UNL1        0.1081
     15 N          62.0673   85.4243   10.1344 N.pl3   1  UNL1       -0.3049
     16 C          63.0714   84.5665    9.4231 C.3     1  UNL1        0.1081
     17 C          63.9085   83.5924   10.1978 C.3     1  UNL1        0.0938
     18 C          63.9195   81.4331   13.2790 C.3     1  UNL1        0.0188
     19 C          64.5787   82.5020   12.4588 C.3     1  UNL1        0.0722
     20 C          62.0496   90.0054   13.0090 C.3     1  UNL1        0.0886
     21 N          63.5417   89.9933   13.1628 N.3     1  UNL1       -0.2667
     22 C          64.2166   88.8369   13.8392 C.3     1  UNL1        0.0899
     23 C          64.3588   91.1374   12.6403 C.3     1  UNL1        0.0978
     24 C          64.2731   91.5207   11.1925 C.3     1  UNL1        0.0224
     25 C          65.0902   92.6649   10.6700 C.3     1  UNL1        0.0065
     26 C          65.9932   93.4258   11.5950 C.3     1  UNL1        0.0277
     27 C          66.0790   93.0425   13.0427 C.ar    1  UNL1       -0.0073
     28 C          66.9820   93.8033   13.9677 C.ar    1  UNL1       -0.0015
     29 C          67.0677   93.4200   15.4154 C.ar    1  UNL1        0.0203
     30 C          66.2506   92.2759   15.9380 C.ar    1  UNL1        0.0985
     31 N          65.3476   91.5150   15.0129 N.ar    1  UNL1       -0.2471
     32 C          65.2618   91.8983   13.5653 C.ar    1  UNL1        0.0695
@<TRIPOS>BOND
     1    18    19    1
     2    19    12    1
     3    12    13    1
     4    13    14    1
     5    14    15    1
     6    15     1    1
     7     1     2   ar
     8     2     3   ar
     9     3     4   ar
    10     4     5   ar
    11     5     6   ar
    12     6     7    1
    13     7     8    1
    14     8    20    1
    15    20    21    1
    16    21    22    1
    17    23    21    1
    18    23    24    1
    19    24    25    1
    20    25    26    1
    21    26    27    1
    22    27    28   ar
    23    28    29   ar
    24    29    30   ar
    25    30    31   ar
    26    31    32   ar
    27     8     9    1
    28     9    10    1
    29    15    16    1
    30    16    17    1
    31    17    12    1
    32     6     1   ar
    33    32    23    1
    34    10     5    1
    35    32    27   ar
    36     9    11    1
@<TRIPOS>MOLECULE
*****
 32 36 0 0 0
SMALL
GASTEIGER

@<TRIPOS>ATOM
      1 C          61.3298   86.5860    9.5712 C.ar    1  UNL1        0.0436
      2 C          60.7108   86.2637    8.2435 C.ar    1  UNL1        0.0142
      3 C          59.9110   87.3039    7.5167 C.ar    1  UNL1        0.0010
      4 C          59.7303   88.6664    8.1176 C.ar    1  UNL1       -0.0032
      5 C          60.3493   88.9886    9.4453 C.ar    1  UNL1       -0.0091
      6 C          61.1491   87.9484   10.1721 C.ar    1  UNL1       -0.0101
      7 C          61.7682   88.2706   11.4999 C.3     1  UNL1        0.0444
      8 C          61.5874   89.6331   12.1008 C.3     1  UNL1        0.0749
      9 N          60.7876   90.6733   11.3739 N.3     1  UNL1       -0.2934
     10 C          60.1686   90.3510   10.0462 C.3     1  UNL1        0.0954
     11 H          61.4070   91.4698   11.2245 H       1  UNL1        0.1236
     12 N          63.7293   83.4654   11.7518 N.3     1  UNL1       -0.2698
     13 C          62.7607   84.3283   12.5049 C.3     1  UNL1        0.0938
     14 C          61.9609   85.3686   11.7780 C.3     1  UNL1        0.1081
     15 N          62.1296   85.5458   10.2981 N.pl3   1  UNL1       -0.3049
     16 C          63.0982   84.6828    9.5451 C.3     1  UNL1        0.1081
     17 C          63.8980   83.6426   10.2719 C.3     1  UNL1        0.0938
     18 C          63.8373   81.4266   13.3585 C.3     1  UNL1        0.0188
     19 C          64.5291   82.4252   12.4786 C.3     1  UNL1        0.0722
     20 C          62.2064   89.9553   13.4286 C.3     1  UNL1        0.0886
     21 N          63.6710   89.7188   13.6505 N.3     1  UNL1       -0.2667
     22 C          64.2218   88.3245   13.5990 C.3     1  UNL1        0.0899
     23 C          64.5847   90.8766   13.9238 C.3     1  UNL1        0.0978
     24 C          65.1144   91.1033   15.3088 C.3     1  UNL1        0.0224
     25 C          66.0281   92.2610   15.5821 C.3     1  UNL1        0.0065
     26 C          66.4121   93.1921   14.4705 C.3     1  UNL1        0.0277
     27 C          65.8825   92.9654   13.0856 C.ar    1  UNL1       -0.0073
     28 C          66.2666   93.8964   11.9740 C.ar    1  UNL1       -0.0015
     29 C          65.7369   93.6697   10.5890 C.ar    1  UNL1        0.0203
     30 C          64.8232   92.5120   10.3157 C.ar    1  UNL1        0.0985
     31 N          64.4391   91.5809   11.4273 N.ar    1  UNL1       -0.2471
     32 C          64.9687   91.8076   12.8122 C.ar    1  UNL1        0.0695
@<TRIPOS>BOND
     1    18    19    1
     2    19    12    1
     3    12    13    1
     4    13    14    1
     5    14    15    1
     6    15     1    1
     7     1     2   ar
     8     2     3   ar
     9     3     4   ar
    10     4     5   ar
    11     5     6   ar
    12     6     7    1
    13     7     8    1
    14     8    20    1
    15    20    21    1
    16    21    22    1
    17    23    21    1
    18    23    24    1
    19    24    25    1
    20    25    26    1
    21    26    27    1
    22    27    28   ar
    23    28    29   ar
    24    29    30   ar
    25    30    31   ar
    26    31    32   ar
    27     8     9    1
    28     9    10    1
    29    15    16    1
    30    16    17    1
    31    17    12    1
    32     6     1   ar
    33    32    23    1
    34    10     5    1
    35    32    27   ar
    36     9    11    1
@<TRIPOS>MOLECULE
*****
 32 36 0 0 0
SMALL
GASTEIGER

@<TRIPOS>ATOM
      1 C          63.3877   84.3191   12.2521 C.ar    1  UNL1        0.0436
      2 C          63.9358   82.9635   11.9174 C.ar    1  UNL1        0.0142
      3 C          64.0532   82.5349   10.4848 C.ar    1  UNL1        0.0010
      4 C          63.6224   83.4618    9.3869 C.ar    1  UNL1       -0.0032
      5 C          63.0743   84.8173    9.7216 C.ar    1  UNL1       -0.0091
      6 C          62.9569   85.2459   11.1543 C.ar    1  UNL1       -0.0101
      7 C          62.4088   86.6015   11.4891 C.3     1  UNL1        0.0444
      8 C          61.9780   87.5284   10.3912 C.3     1  UNL1        0.0749
      9 N          62.0955   87.0997    8.9585 N.3     1  UNL1       -0.2934
     10 C          62.6436   85.7442    8.6238 C.3     1  UNL1        0.0954
     11 H          62.6950   87.7825    8.4951 H       1  UNL1        0.1236
     12 N          63.0355   85.6051   16.5501 N.3     1  UNL1       -0.2698
     13 C          62.1031   84.5674   15.9990 C.3     1  UNL1        0.0938
     14 C          62.2205   84.1387   14.5663 C.3     1  UNL1        0.1081
     15 N          63.2703   84.7477   13.6848 N.pl3   1  UNL1       -0.3049
     16 C          64.2027   85.7854   14.2360 C.3     1  UNL1        0.1081
     17 C          64.0853   86.2141   15.6686 C.3     1  UNL1        0.0938
     18 C          62.7216   87.4825   18.3183 C.3     1  UNL1        0.0188
     19 C          62.9182   86.0338   17.9827 C.3     1  UNL1        0.0722
     20 C          61.4299   88.8839   10.7259 C.3     1  UNL1        0.0886
     21 N          62.3471   90.0692   10.7890 N.3     1  UNL1       -0.2667
     22 C          62.4646   90.9901    9.6107 C.3     1  UNL1        0.0899
     23 C          63.1467   90.3335   12.0302 C.3     1  UNL1        0.0978
     24 C          62.8488   89.5757   13.2900 C.3     1  UNL1        0.0224
     25 C          63.6484   89.8400   14.5312 C.3     1  UNL1        0.0065
     26 C          64.7460   90.8623   14.5127 C.3     1  UNL1        0.0277
     27 C          65.0440   91.6201   13.2531 C.ar    1  UNL1       -0.0073
     28 C          66.1416   92.6423   13.2346 C.ar    1  UNL1       -0.0015
     29 C          66.4395   93.4002   11.9749 C.ar    1  UNL1        0.0203
     30 C          65.6399   93.1359   10.7336 C.ar    1  UNL1        0.0985
     31 N          64.5423   92.1136   10.7521 N.ar    1  UNL1       -0.2471
     32 C          64.2443   91.3558   12.0118 C.ar    1  UNL1        0.0695
@<TRIPOS>BOND
     1    18    19    1
     2    19    12    1
     3    12    13    1
     4    13    14    1
     5    14    15    1
     6    15     1    1
     7     1     2   ar
     8     2     3   ar
     9     3     4   ar
    10     4     5   ar
    11     5     6   ar
    12     6     7    1
    13     7     8    1
    14     8    20    1
    15    20    21    1
    16    21    22    1
    17    23    21    1
    18    23    24    1
    19    24    25    1
    20    25    26    1
    21    26    27    1
    22    27    28   ar
    23    28    29   ar
    24    29    30   ar
    25    30    31   ar
    26    31    32   ar
    27     8     9    1
    28     9    10    1
    29    15    16    1
    30    16    17    1
    31    17    12    1
    32     6     1   ar
    33    32    23    1
    34    10     5    1
    35    32    27   ar
    36     9    11    1
@<TRIPOS>MOLECULE
*****
 32 36 0 0 0
SMALL
GASTEIGER

@<TRIPOS>ATOM
      1 C          63.5237   90.5054   11.8077 C.ar    1  UNL1        0.0436
      2 C          62.9417   91.2413   10.6374 C.ar    1  UNL1        0.0142
      3 C          62.0390   90.5268    9.6758 C.ar    1  UNL1        0.0010
      4 C          61.7183   89.0764    9.8846 C.ar    1  UNL1       -0.0032
      5 C          62.3003   88.3405   11.0549 C.ar    1  UNL1       -0.0091
      6 C          63.2030   89.0550   12.0165 C.ar    1  UNL1       -0.0101
      7 C          63.7850   88.3191   13.1869 C.3     1  UNL1        0.0444
      8 C          63.4643   86.8688   13.3957 C.3     1  UNL1        0.0749
      9 N          62.5616   86.1543   12.4341 N.3     1  UNL1       -0.2934
     10 C          61.9796   86.8902   11.2637 C.3     1  UNL1        0.0954
     11 H          61.7758   85.7972   12.9777 H       1  UNL1        0.1236
     12 N          66.2319   92.6488   14.6925 N.3     1  UNL1       -0.2698
     13 C          66.2957   92.9651   13.2276 C.3     1  UNL1        0.0938
     14 C          65.3929   92.2507   12.2660 C.3     1  UNL1        0.1081
     15 N          64.4264   91.2199   12.7693 N.pl3   1  UNL1       -0.3049
     16 C          64.3627   90.9035   14.2342 C.3     1  UNL1        0.1081
     17 C          65.2654   91.6179   15.1957 C.3     1  UNL1        0.0938
     18 C          68.5635   92.9320   15.8029 C.3     1  UNL1        0.0188
     19 C          67.1346   93.3632   15.6541 C.3     1  UNL1        0.0722
     20 C          64.0463   86.1329   14.5660 C.3     1  UNL1        0.0886
     21 N          64.6127   84.7564   14.3801 N.3     1  UNL1       -0.2667
     22 C          66.0897   84.5291   14.5111 C.3     1  UNL1        0.0899
     23 C          63.7022   83.6073   14.0633 C.3     1  UNL1        0.0978
     24 C          62.7844   83.0645   15.1184 C.3     1  UNL1        0.0224
     25 C          61.8739   81.9154   14.8015 C.3     1  UNL1        0.0065
     26 C          61.8812   81.3089   13.4296 C.3     1  UNL1        0.0277
     27 C          62.7989   81.8516   12.3745 C.ar    1  UNL1       -0.0073
     28 C          62.8062   81.2451   11.0026 C.ar    1  UNL1       -0.0015
     29 C          63.7240   81.7878    9.9475 C.ar    1  UNL1        0.0203
     30 C          64.6345   82.9370   10.2644 C.ar    1  UNL1        0.0985
     31 N          64.6272   83.5435   11.6363 N.ar    1  UNL1       -0.2471
     32 C          63.7095   83.0008   12.6913 C.ar    1  UNL1        0.0695
@<TRIPOS>BOND
     1    18    19    1
     2    19    12    1
     3    12    13    1
     4    13    14    1
     5    14    15    1
     6    15     1    1
     7     1     2   ar
     8     2     3   ar
     9     3     4   ar
    10     4     5   ar
    11     5     6   ar
    12     6     7    1
    13     7     8    1
    14     8    20    1
    15    20    21    1
    16    21    22    1
    17    23    21    1
    18    23    24    1
    19    24    25    1
    20    25    26    1
    21    26    27    1
    22    27    28   ar
    23    28    29   ar
    24    29    30   ar
    25    30    31   ar
    26    31    32   ar
    27     8     9    1
    28     9    10    1
    29    15    16    1
    30    16    17    1
    31    17    12    1
    32     6     1   ar
    33    32    23    1
    34    10     5    1
    35    32    27   ar
    36     9    11    1
@<TRIPOS>MOLECULE
*****
 32 36 0 0 0
SMALL
GASTEIGER

@<TRIPOS>ATOM
      1 C          61.3952   86.5664    9.6334 C.ar    1  UNL1        0.0436
      2 C          60.4972   86.2722    8.4685 C.ar    1  UNL1        0.0142
      3 C          59.7089   87.3778    7.8312 C.ar    1  UNL1        0.0010
      4 C          59.8185   88.7777    8.3590 C.ar    1  UNL1       -0.0032
      5 C          60.7165   89.0719    9.5239 C.ar    1  UNL1       -0.0091
      6 C          61.5048   87.9662   10.1611 C.ar    1  UNL1       -0.0101
      7 C          62.4028   88.2604   11.3261 C.3     1  UNL1        0.0444
      8 C          62.5124   89.6602   11.8538 C.3     1  UNL1        0.0749
      9 N          61.7240   90.7659   11.2165 N.3     1  UNL1       -0.2934
     10 C          60.8261   90.4717   10.0516 C.3     1  UNL1        0.0954
     11 H          62.3977   91.4634   10.9002 H       1  UNL1        0.1236
     12 N          63.7604   83.2495   11.5451 N.3     1  UNL1       -0.2698
     13 C          62.8244   84.0777   12.3746 C.3     1  UNL1        0.0938
     14 C          62.0360   85.1833   11.7373 C.3     1  UNL1        0.1081
     15 N          62.1836   85.4608   10.2706 N.pl3   1  UNL1       -0.3049
     16 C          63.1196   84.6326    9.4412 C.3     1  UNL1        0.1081
     17 C          63.9080   83.5270   10.0784 C.3     1  UNL1        0.0938
     18 C          63.9689   81.3762   13.3331 C.3     1  UNL1        0.0188
     19 C          64.5487   82.1439   12.1823 C.3     1  UNL1        0.0722
     20 C          63.4103   89.9544   13.0187 C.3     1  UNL1        0.0886
     21 N          64.3730   91.1029   12.9524 N.3     1  UNL1       -0.2667
     22 C          64.6371   91.7854   11.6430 C.3     1  UNL1        0.0899
     23 C          65.0716   91.5687   14.1953 C.3     1  UNL1        0.0978
     24 C          64.2920   91.7804   15.4593 C.3     1  UNL1        0.0224
     25 C          64.9905   92.2462   16.7022 C.3     1  UNL1        0.0065
     26 C          66.4686   92.5004   16.6813 C.3     1  UNL1        0.0277
     27 C          67.2483   92.2888   15.4175 C.ar    1  UNL1       -0.0073
     28 C          68.7264   92.5430   15.3966 C.ar    1  UNL1       -0.0015
     29 C          69.5060   92.3314   14.1326 C.ar    1  UNL1        0.0203
     30 C          68.8075   91.8656   12.8897 C.ar    1  UNL1        0.0985
     31 N          67.3293   91.6113   12.9106 N.ar    1  UNL1       -0.2471
     32 C          66.5497   91.8229   14.1744 C.ar    1  UNL1        0.0695
@<TRIPOS>BOND
     1    18    19    1
     2    19    12    1
     3    12    13    1
     4    13    14    1
     5    14    15    1
     6    15     1    1
     7     1     2   ar
     8     2     3   ar
     9     3     4   ar
    10     4     5   ar
    11     5     6   ar
    12     6     7    1
    13     7     8    1
    14     8    20    1
    15    20    21    1
    16    21    22    1
    17    23    21    1
    18    23    24    1
    19    24    25    1
    20    25    26    1
    21    26    27    1
    22    27    28   ar
    23    28    29   ar
    24    29    30   ar
    25    30    31   ar
    26    31    32   ar
    27     8     9    1
    28     9    10    1
    29    15    16    1
    30    16    17    1
    31    17    12    1
    32     6     1   ar
    33    32    23    1
    34    10     5    1
    35    32    27   ar
    36     9    11    1
