@<TRIPOS>MOLECULE
*****
 26 28 0 0 0
SMALL
GASTEIGER

@<TRIPOS>ATOM
      1 C          63.8827   91.2418   11.4505 C.ar    1  UNL1       -0.0078
      2 C          63.8130   90.2692   12.5902 C.ar    1  UNL1        0.0001
      3 C          62.8424   89.1266   12.5428 C.ar    1  UNL1        0.0366
      4 C          61.9415   88.9566   11.3555 C.ar    1  UNL1        0.1390
      5 C          62.0113   89.9292   10.2158 C.ar    1  UNL1        0.0366
      6 C          62.9819   91.0718   10.2632 C.ar    1  UNL1        0.0001
      7 C          66.2082   94.2907   10.8488 C.3     1  UNL1        0.1315
      8 C          66.4857   93.9951   12.2930 C.3     1  UNL1        0.0268
      9 C          65.6484   92.8170   12.6941 C.3     1  UNL1        0.0221
     10 C          64.8534   92.3846   11.4979 C.3     1  UNL1        0.0772
     11 N          65.1994   93.2954   10.3574 N.3     1  UNL1       -0.2890
     12 H          64.3620   93.7811   10.0360 H       1  UNL1        0.1239
     13 N          67.9337   95.0751    9.0718 N.am    1  UNL1       -0.3277
     14 C          66.8304   95.3890   10.0383 C.2     1  UNL1        0.2336
     15 O          66.3492   96.8011   10.1943 O.2     1  UNL1       -0.2739
     16 H          68.3420   95.7958    8.5399 H       1  UNL1        0.1450
     17 H          68.2495   94.1482    8.9694 H       1  UNL1        0.1450
     18 O          60.9709   87.8139   11.3081 O.3     1  UNL1       -0.4706
     19 C          60.3090   87.4453   10.0135 C.3     1  UNL1        0.2342
     20 C          61.0180   86.5564    9.0351 C.ar    1  UNL1        0.0486
     21 C          62.4439   86.1600    9.2787 C.ar    1  UNL1        0.0016
     22 C          63.1529   85.2712    8.3003 C.ar    1  UNL1       -0.0001
     23 C          62.4358   84.7788    7.0782 C.ar    1  UNL1        0.0023
     24 C          61.0098   85.1753    6.8346 C.ar    1  UNL1        0.0294
     25 C          60.3009   86.0641    7.8130 C.ar    1  UNL1        0.1396
     26 F          58.8749   86.4606    7.5694 F       1  UNL1       -0.2044
@<TRIPOS>BOND
     1    13    14   am
     2    14    15    2
     3     7    14    1
     4     7     8    1
     5     8     9    1
     6     9    10    1
     7    10     1    1
     8     1     2   ar
     9     2     3   ar
    10     3     4   ar
    11     4    18    1
    12    18    19    1
    13    19    20    1
    14    20    21   ar
    15    21    22   ar
    16    22    23   ar
    17    23    24   ar
    18    24    25   ar
    19    25    26    1
    20     4     5   ar
    21     5     6   ar
    22    10    11    1
    23    11     7    1
    24     6     1   ar
    25    25    20   ar
    26    13    16    1
    27    13    17    1
    28    11    12    1
@<TRIPOS>MOLECULE
*****
 26 28 0 0 0
SMALL
GASTEIGER

@<TRIPOS>ATOM
      1 C          62.8336   89.2337   11.1605 C.ar    1  UNL1       -0.0078
      2 C          63.2937   89.1264   12.5841 C.ar    1  UNL1        0.0001
      3 C          64.0291   90.2672   13.2226 C.ar    1  UNL1        0.0366
      4 C          64.3044   91.5153   12.4375 C.ar    1  UNL1        0.1390
      5 C          63.8443   91.6226   11.0139 C.ar    1  UNL1        0.0366
      6 C          63.1089   90.4818   10.3754 C.ar    1  UNL1        0.0001
      7 C          60.7145   86.7990    9.0047 C.3     1  UNL1        0.1315
      8 C          61.2184   85.8756   10.0740 C.3     1  UNL1        0.0268
      9 C          62.0736   86.6753   11.0117 C.3     1  UNL1        0.0221
     10 C          62.0981   88.0929   10.5219 C.3     1  UNL1        0.0772
     11 N          61.2582   88.1693    9.2815 N.3     1  UNL1       -0.2890
     12 H          61.8290   88.4805    8.4956 H       1  UNL1        0.1239
     13 N          58.6318   87.2657    7.5232 N.am    1  UNL1       -0.3277
     14 C          59.8233   86.4188    7.8596 C.2     1  UNL1        0.2336
     15 O          60.1236   85.1918    7.0508 O.2     1  UNL1       -0.2739
     16 H          58.0469   87.0162    6.7717 H       1  UNL1        0.1450
     17 H          58.4347   88.0710    8.0541 H       1  UNL1        0.1450
     18 O          65.0398   92.6561   13.0761 O.3     1  UNL1       -0.4706
     19 C          66.5120   92.8240   12.8425 C.3     1  UNL1        0.2342
     20 C          67.0284   93.0669   11.4552 C.ar    1  UNL1        0.0486
     21 C          67.9018   92.0446   10.7904 C.ar    1  UNL1        0.0016
     22 C          68.4181   92.2874    9.4032 C.ar    1  UNL1       -0.0001
     23 C          68.0611   93.5526    8.6809 C.ar    1  UNL1        0.0023
     24 C          67.1877   94.5749    9.3457 C.ar    1  UNL1        0.0294
     25 C          66.6713   94.3320   10.7329 C.ar    1  UNL1        0.1396
     26 F          65.7979   95.3544   11.3977 F       1  UNL1       -0.2044
@<TRIPOS>BOND
     1    13    14   am
     2    14    15    2
     3     7    14    1
     4     7     8    1
     5     8     9    1
     6     9    10    1
     7    10     1    1
     8     1     2   ar
     9     2     3   ar
    10     3     4   ar
    11     4    18    1
    12    18    19    1
    13    19    20    1
    14    20    21   ar
    15    21    22   ar
    16    22    23   ar
    17    23    24   ar
    18    24    25   ar
    19    25    26    1
    20     4     5   ar
    21     5     6   ar
    22    10    11    1
    23    11     7    1
    24     6     1   ar
    25    25    20   ar
    26    13    16    1
    27    13    17    1
    28    11    12    1
@<TRIPOS>MOLECULE
*****
 26 28 0 0 0
SMALL
GASTEIGER

@<TRIPOS>ATOM
      1 C          63.9571   91.1477   11.4515 C.ar    1  UNL1       -0.0078
      2 C          63.1257   90.8505   10.2389 C.ar    1  UNL1        0.0001
      3 C          62.2437   89.6376   10.2132 C.ar    1  UNL1        0.0366
      4 C          62.1931   88.7217   11.4001 C.ar    1  UNL1        0.1390
      5 C          63.0246   89.0189   12.6127 C.ar    1  UNL1        0.0366
      6 C          63.9066   90.2318   12.6384 C.ar    1  UNL1        0.0001
      7 C          65.9997   94.3854   10.8106 C.3     1  UNL1        0.1315
      8 C          66.3934   94.0692   12.2231 C.3     1  UNL1        0.0268
      9 C          65.6761   92.8179   12.6351 C.3     1  UNL1        0.0221
     10 C          64.8392   92.3607   11.4772 C.3     1  UNL1        0.0772
     11 N          65.0392   93.3295   10.3496 N.3     1  UNL1       -0.2890
     12 H          64.1481   93.7578   10.0991 H       1  UNL1        0.1239
     13 N          66.5911   95.4370    8.5097 N.am    1  UNL1       -0.3277
     14 C          66.4820   95.5526   10.0012 C.2     1  UNL1        0.2336
     15 O          66.8551   96.8353   10.6833 O.2     1  UNL1       -0.2739
     16 H          66.9076   96.2031    7.9784 H       1  UNL1        0.1450
     17 H          66.3462   94.5951    8.0619 H       1  UNL1        0.1450
     18 O          61.3111   87.5087   11.3744 O.3     1  UNL1       -0.4706
     19 C          61.5609   86.4208   10.3724 C.3     1  UNL1        0.2342
     20 C          62.4744   85.2812   10.7146 C.ar    1  UNL1        0.0486
     21 C          62.6594   84.8721   12.1458 C.ar    1  UNL1        0.0016
     22 C          63.5728   83.7326   12.4880 C.ar    1  UNL1       -0.0001
     23 C          64.3012   83.0022   11.3990 C.ar    1  UNL1        0.0023
     24 C          64.1162   83.4113    9.9678 C.ar    1  UNL1        0.0294
     25 C          63.2028   84.5508    9.6256 C.ar    1  UNL1        0.1396
     26 F          63.0177   84.9600    8.1944 F       1  UNL1       -0.2044
@<TRIPOS>BOND
     1    13    14   am
     2    14    15    2
     3     7    14    1
     4     7     8    1
     5     8     9    1
     6     9    10    1
     7    10     1    1
     8     1     2   ar
     9     2     3   ar
    10     3     4   ar
    11     4    18    1
    12    18    19    1
    13    19    20    1
    14    20    21   ar
    15    21    22   ar
    16    22    23   ar
    17    23    24   ar
    18    24    25   ar
    19    25    26    1
    20     4     5   ar
    21     5     6   ar
    22    10    11    1
    23    11     7    1
    24     6     1   ar
    25    25    20   ar
    26    13    16    1
    27    13    17    1
    28    11    12    1
@<TRIPOS>MOLECULE
*****
 26 28 0 0 0
SMALL
GASTEIGER

@<TRIPOS>ATOM
      1 C          63.9167   90.9378   11.8396 C.ar    1  UNL1       -0.0078
      2 C          63.5221   89.6960   12.5826 C.ar    1  UNL1        0.0001
      3 C          62.5275   88.7471   11.9823 C.ar    1  UNL1        0.0366
      4 C          61.9276   89.0400   10.6391 C.ar    1  UNL1        0.1390
      5 C          62.3223   90.2818    9.8961 C.ar    1  UNL1        0.0366
      6 C          63.3168   91.2307   10.4963 C.ar    1  UNL1        0.0001
      7 C          66.4694   92.9261   13.9834 C.3     1  UNL1        0.1315
      8 C          66.4143   93.7682   12.7433 C.3     1  UNL1        0.0268
      9 C          65.4513   93.1259   11.7893 C.3     1  UNL1        0.0221
     10 C          64.9114   91.8868   12.4398 C.3     1  UNL1        0.0772
     11 N          65.5406   91.7633   13.7958 N.3     1  UNL1       -0.2890
     12 H          66.0632   90.8895   13.8566 H       1  UNL1        0.1239
     13 N          66.6884   93.1405   16.5634 N.am    1  UNL1       -0.3277
     14 C          67.3065   93.1988   15.1979 C.2     1  UNL1        0.2336
     15 O          68.7617   93.5298   15.0470 O.2     1  UNL1       -0.2739
     16 H          67.2378   93.3196   17.3605 H       1  UNL1        0.1450
     17 H          65.7333   92.9233   16.6625 H       1  UNL1        0.1450
     18 O          60.9330   88.0910   10.0388 O.3     1  UNL1       -0.4706
     19 C          61.4049   86.9473    9.1907 C.3     1  UNL1        0.2342
     20 C          62.1153   85.7875    9.8234 C.ar    1  UNL1        0.0486
     21 C          61.9000   85.4776   11.2751 C.ar    1  UNL1        0.0016
     22 C          62.6104   84.3179   11.9078 C.ar    1  UNL1       -0.0001
     23 C          63.5361   83.4681   11.0887 C.ar    1  UNL1        0.0023
     24 C          63.7515   83.7780    9.6370 C.ar    1  UNL1        0.0294
     25 C          63.0410   84.9378    9.0043 C.ar    1  UNL1        0.1396
     26 F          63.2563   85.2478    7.5525 F       1  UNL1       -0.2044
@<TRIPOS>BOND
     1    13    14   am
     2    14    15    2
     3     7    14    1
     4     7     8    1
     5     8     9    1
     6     9    10    1
     7    10     1    1
     8     1     2   ar
     9     2     3   ar
    10     3     4   ar
    11     4    18    1
    12    18    19    1
    13    19    20    1
    14    20    21   ar
    15    21    22   ar
    16    22    23   ar
    17    23    24   ar
    18    24    25   ar
    19    25    26    1
    20     4     5   ar
    21     5     6   ar
    22    10    11    1
    23    11     7    1
    24     6     1   ar
    25    25    20   ar
    26    13    16    1
    27    13    17    1
    28    11    12    1
@<TRIPOS>MOLECULE
*****
 26 28 0 0 0
SMALL
GASTEIGER

@<TRIPOS>ATOM
      1 C          63.8153   91.2724   11.4468 C.ar    1  UNL1       -0.0078
      2 C          63.6980   90.3234   12.6024 C.ar    1  UNL1        0.0001
      3 C          62.6598   89.2409   12.5814 C.ar    1  UNL1        0.0366
      4 C          61.7390   89.1075   11.4049 C.ar    1  UNL1        0.1390
      5 C          61.8564   90.0566   10.2492 C.ar    1  UNL1        0.0366
      6 C          62.8945   91.1390   10.2702 C.ar    1  UNL1        0.0001
      7 C          66.3190   94.1614   10.7752 C.3     1  UNL1        0.1315
      8 C          66.5831   93.8801   12.2247 C.3     1  UNL1        0.0268
      9 C          65.6774   92.7637   12.6527 C.3     1  UNL1        0.0221
     10 C          64.8535   92.3550   11.4677 C.3     1  UNL1        0.0772
     11 N          65.2500   93.2189   10.3073 N.3     1  UNL1       -0.2890
     12 H          64.4425   93.7475    9.9775 H       1  UNL1        0.1239
     13 N          67.8844   94.7885    8.7987 N.am    1  UNL1       -0.3277
     14 C          67.0036   95.2026    9.9401 C.2     1  UNL1        0.2336
     15 O          66.8076   96.6578   10.2464 O.2     1  UNL1       -0.2739
     16 H          68.3337   95.4718    8.2506 H       1  UNL1        0.1450
     17 H          68.0131   93.8334    8.5976 H       1  UNL1        0.1450
     18 O          60.7009   88.0250   11.3839 O.3     1  UNL1       -0.4706
     19 C          60.5442   87.1595   10.1689 C.3     1  UNL1        0.2342
     20 C          61.5826   86.1266    9.8448 C.ar    1  UNL1        0.0486
     21 C          62.0498   85.9509    8.4304 C.ar    1  UNL1        0.0016
     22 C          63.0882   84.9181    8.1063 C.ar    1  UNL1       -0.0001
     23 C          63.6594   84.0610    9.1968 C.ar    1  UNL1        0.0023
     24 C          63.1921   84.2367   10.6113 C.ar    1  UNL1        0.0294
     25 C          62.1538   85.2695   10.9353 C.ar    1  UNL1        0.1396
     26 F          61.6865   85.4452   12.3498 F       1  UNL1       -0.2044
@<TRIPOS>BOND
     1    13    14   am
     2    14    15    2
     3     7    14    1
     4     7     8    1
     5     8     9    1
     6     9    10    1
     7    10     1    1
     8     1     2   ar
     9     2     3   ar
    10     3     4   ar
    11     4    18    1
    12    18    19    1
    13    19    20    1
    14    20    21   ar
    15    21    22   ar
    16    22    23   ar
    17    23    24   ar
    18    24    25   ar
    19    25    26    1
    20     4     5   ar
    21     5     6   ar
    22    10    11    1
    23    11     7    1
    24     6     1   ar
    25    25    20   ar
    26    13    16    1
    27    13    17    1
    28    11    12    1
@<TRIPOS>MOLECULE
*****
 26 28 0 0 0
SMALL
GASTEIGER

@<TRIPOS>ATOM
      1 C          63.6188   91.0948   11.7476 C.ar    1  UNL1       -0.0078
      2 C          62.8068   90.1766   12.6122 C.ar    1  UNL1        0.0001
      3 C          61.6317   89.4457   12.0335 C.ar    1  UNL1        0.0366
      4 C          61.2687   89.6330   10.5902 C.ar    1  UNL1        0.1390
      5 C          62.0807   90.5512    9.7256 C.ar    1  UNL1        0.0366
      6 C          63.2557   91.2821   10.3043 C.ar    1  UNL1        0.0001
      7 C          66.5577   92.5311   13.8370 C.3     1  UNL1        0.1315
      8 C          66.6466   93.3702   12.5967 C.3     1  UNL1        0.0268
      9 C          65.5565   92.9343   11.6632 C.3     1  UNL1        0.0221
     10 C          64.7939   91.8258   12.3264 C.3     1  UNL1        0.0772
     11 N          65.4127   91.5767   13.6698 N.3     1  UNL1       -0.2890
     12 H          65.7523   90.6162   13.7218 H       1  UNL1        0.1239
     13 N          68.9374   92.4524   14.8768 N.am    1  UNL1       -0.3277
     14 C          67.4562   92.6293   15.0341 C.2     1  UNL1        0.2336
     15 O          66.8735   92.9044   16.3886 O.2     1  UNL1       -0.2739
     16 H          69.5270   92.5168   15.6625 H       1  UNL1        0.1450
     17 H          69.3198   92.2718   13.9878 H       1  UNL1        0.1450
     18 O          60.0936   88.9020   10.0114 O.3     1  UNL1       -0.4706
     19 C          60.0211   87.4066   10.1035 C.3     1  UNL1        0.2342
     20 C          60.8701   86.5578    9.2042 C.ar    1  UNL1        0.0486
     21 C          60.3553   86.1445    7.8573 C.ar    1  UNL1        0.0016
     22 C          61.2043   85.2957    6.9580 C.ar    1  UNL1       -0.0001
     23 C          62.5681   84.8601    7.4057 C.ar    1  UNL1        0.0023
     24 C          63.0829   85.2734    8.7526 C.ar    1  UNL1        0.0294
     25 C          62.2338   86.1222    9.6518 C.ar    1  UNL1        0.1396
     26 F          62.7486   86.5355   10.9988 F       1  UNL1       -0.2044
@<TRIPOS>BOND
     1    13    14   am
     2    14    15    2
     3     7    14    1
     4     7     8    1
     5     8     9    1
     6     9    10    1
     7    10     1    1
     8     1     2   ar
     9     2     3   ar
    10     3     4   ar
    11     4    18    1
    12    18    19    1
    13    19    20    1
    14    20    21   ar
    15    21    22   ar
    16    22    23   ar
    17    23    24   ar
    18    24    25   ar
    19    25    26    1
    20     4     5   ar
    21     5     6   ar
    22    10    11    1
    23    11     7    1
    24     6     1   ar
    25    25    20   ar
    26    13    16    1
    27    13    17    1
    28    11    12    1
@<TRIPOS>MOLECULE
*****
 26 28 0 0 0
SMALL
GASTEIGER

@<TRIPOS>ATOM
      1 C          63.9816   88.0842   13.8311 C.ar    1  UNL1       -0.0078
      2 C          63.3597   88.5926   12.5643 C.ar    1  UNL1        0.0001
      3 C          63.5235   90.0314   12.1732 C.ar    1  UNL1        0.0366
      4 C          64.3093   90.9618   13.0489 C.ar    1  UNL1        0.1390
      5 C          64.9312   90.4535   14.3157 C.ar    1  UNL1        0.0366
      6 C          64.7674   89.0147   14.7067 C.ar    1  UNL1        0.0001
      7 C          63.2145   84.2950   14.1756 C.3     1  UNL1        0.1315
      8 C          63.9169   84.5676   15.4727 C.3     1  UNL1        0.0268
      9 C          64.2897   86.0202   15.5015 C.3     1  UNL1        0.0221
     10 C          63.8178   86.6454   14.2222 C.3     1  UNL1        0.0772
     11 N          63.1533   85.5791   13.4028 N.3     1  UNL1       -0.2890
     12 H          63.6411   85.4715   12.5135 H       1  UNL1        0.1239
     13 N          62.3225   81.9221   14.7447 N.am    1  UNL1       -0.3277
     14 C          62.6691   82.9707   13.7297 C.2     1  UNL1        0.2336
     15 O          62.4704   82.6950   12.2687 O.2     1  UNL1       -0.2739
     16 H          61.9645   81.0529   14.4520 H       1  UNL1        0.1450
     17 H          62.4529   82.1031   15.7036 H       1  UNL1        0.1450
     18 O          64.4731   92.4007   12.6577 O.3     1  UNL1       -0.4706
     19 C          65.8257   93.0459   12.7216 C.3     1  UNL1        0.2342
     20 C          66.5822   93.3288   11.4576 C.ar    1  UNL1        0.0486
     21 C          67.3675   92.2370   10.7932 C.ar    1  UNL1        0.0016
     22 C          68.1239   92.5200    9.5292 C.ar    1  UNL1       -0.0001
     23 C          68.0952   93.8946    8.9296 C.ar    1  UNL1        0.0023
     24 C          67.3099   94.9863    9.5940 C.ar    1  UNL1        0.0294
     25 C          66.5535   94.7034   10.8580 C.ar    1  UNL1        0.1396
     26 F          65.7682   95.7952   11.5225 F       1  UNL1       -0.2044
@<TRIPOS>BOND
     1    13    14   am
     2    14    15    2
     3     7    14    1
     4     7     8    1
     5     8     9    1
     6     9    10    1
     7    10     1    1
     8     1     2   ar
     9     2     3   ar
    10     3     4   ar
    11     4    18    1
    12    18    19    1
    13    19    20    1
    14    20    21   ar
    15    21    22   ar
    16    22    23   ar
    17    23    24   ar
    18    24    25   ar
    19    25    26    1
    20     4     5   ar
    21     5     6   ar
    22    10    11    1
    23    11     7    1
    24     6     1   ar
    25    25    20   ar
    26    13    16    1
    27    13    17    1
    28    11    12    1
@<TRIPOS>MOLECULE
*****
 26 28 0 0 0
SMALL
GASTEIGER

@<TRIPOS>ATOM
      1 C          63.2488   86.9126   12.7860 C.ar    1  UNL1       -0.0078
      2 C          62.7130   87.8439   11.7394 C.ar    1  UNL1        0.0001
      3 C          62.9116   89.3240   11.8799 C.ar    1  UNL1        0.0366
      4 C          63.6461   89.8728   13.0670 C.ar    1  UNL1        0.1390
      5 C          64.1819   88.9415   14.1137 C.ar    1  UNL1        0.0366
      6 C          63.9833   87.4614   13.9732 C.ar    1  UNL1        0.0001
      7 C          62.7759   83.0798   13.1750 C.3     1  UNL1        0.1315
      8 C          62.7131   83.2297   11.6837 C.3     1  UNL1        0.0268
      9 C          62.8826   84.6837   11.3566 C.3     1  UNL1        0.0221
     10 C          63.0502   85.4324   12.6456 C.3     1  UNL1        0.0772
     11 N          62.9842   84.4411   13.7693 N.3     1  UNL1       -0.2890
     12 H          62.2070   84.6711   14.3886 H       1  UNL1        0.1239
     13 N          61.3106   81.3429   14.4345 N.am    1  UNL1       -0.3277
     14 C          62.6521   81.7941   13.9378 C.2     1  UNL1        0.2336
     15 O          63.8698   80.9597   14.2039 O.2     1  UNL1       -0.2739
     16 H          61.2294   80.4992   14.9351 H       1  UNL1        0.1450
     17 H          60.5113   81.8906   14.2598 H       1  UNL1        0.1450
     18 O          63.8447   91.3530   13.2075 O.3     1  UNL1       -0.4706
     19 C          65.1650   91.9697   12.8516 C.3     1  UNL1        0.2342
     20 C          66.2162   92.1521   13.9060 C.ar    1  UNL1        0.0486
     21 C          65.8158   92.4506   15.3204 C.ar    1  UNL1        0.0016
     22 C          66.8670   92.6331   16.3748 C.ar    1  UNL1       -0.0001
     23 C          68.3185   92.5171   16.0147 C.ar    1  UNL1        0.0023
     24 C          68.7188   92.2186   14.6003 C.ar    1  UNL1        0.0294
     25 C          67.6677   92.0361   13.5460 C.ar    1  UNL1        0.1396
     26 F          68.0680   91.7376   12.1315 F       1  UNL1       -0.2044
@<TRIPOS>BOND
     1    13    14   am
     2    14    15    2
     3     7    14    1
     4     7     8    1
     5     8     9    1
     6     9    10    1
     7    10     1    1
     8     1     2   ar
     9     2     3   ar
    10     3     4   ar
    11     4    18    1
    12    18    19    1
    13    19    20    1
    14    20    21   ar
    15    21    22   ar
    16    22    23   ar
    17    23    24   ar
    18    24    25   ar
    19    25    26    1
    20     4     5   ar
    21     5     6   ar
    22    10    11    1
    23    11     7    1
    24     6     1   ar
    25    25    20   ar
    26    13    16    1
    27    13    17    1
    28    11    12    1
@<TRIPOS>MOLECULE
*****
 26 28 0 0 0
SMALL
GASTEIGER

@<TRIPOS>ATOM
      1 C          64.2081   88.9234   14.0713 C.ar    1  UNL1       -0.0078
      2 C          65.1540   89.8856   14.7266 C.ar    1  UNL1        0.0001
      3 C          65.3852   91.2389   14.1223 C.ar    1  UNL1        0.0366
      4 C          64.6705   91.6299   12.8628 C.ar    1  UNL1        0.1390
      5 C          63.7246   90.6677   12.2076 C.ar    1  UNL1        0.0366
      6 C          63.4934   89.3144   12.8119 C.ar    1  UNL1        0.0001
      7 C          63.7090   85.1714   14.9311 C.3     1  UNL1        0.1315
      8 C          63.5331   85.8037   16.2800 C.3     1  UNL1        0.0268
      9 C          63.6986   87.2862   16.1220 C.3     1  UNL1        0.0221
     10 C          63.9769   87.5700   14.6756 C.3     1  UNL1        0.0772
     11 N          63.9833   86.2630   13.9396 N.3     1  UNL1       -0.2890
     12 H          64.8941   86.1150   13.5050 H       1  UNL1        0.1239
     13 N          62.7336   82.8190   15.4456 N.am    1  UNL1       -0.3277
     14 C          63.6254   83.7049   14.6272 C.2     1  UNL1        0.2336
     15 O          64.4336   83.1242   13.5049 O.2     1  UNL1       -0.2739
     16 H          62.6787   81.8565   15.2461 H       1  UNL1        0.1450
     17 H          62.2031   83.2001   16.1822 H       1  UNL1        0.1450
     18 O          64.9018   92.9832   12.2585 O.3     1  UNL1       -0.4706
     19 C          66.3006   93.4877   12.0617 C.3     1  UNL1        0.2342
     20 C          66.6135   94.4030   10.9153 C.ar    1  UNL1        0.0486
     21 C          66.3014   95.8666   11.0173 C.ar    1  UNL1        0.0016
     22 C          66.6144   96.7818    9.8709 C.ar    1  UNL1       -0.0001
     23 C          67.2394   96.2335    8.6224 C.ar    1  UNL1        0.0023
     24 C          67.5514   94.7699    8.5203 C.ar    1  UNL1        0.0294
     25 C          67.2385   93.8546    9.6668 C.ar    1  UNL1        0.1396
     26 F          67.5506   92.3910    9.5648 F       1  UNL1       -0.2044
@<TRIPOS>BOND
     1    13    14   am
     2    14    15    2
     3     7    14    1
     4     7     8    1
     5     8     9    1
     6     9    10    1
     7    10     1    1
     8     1     2   ar
     9     2     3   ar
    10     3     4   ar
    11     4    18    1
    12    18    19    1
    13    19    20    1
    14    20    21   ar
    15    21    22   ar
    16    22    23   ar
    17    23    24   ar
    18    24    25   ar
    19    25    26    1
    20     4     5   ar
    21     5     6   ar
    22    10    11    1
    23    11     7    1
    24     6     1   ar
    25    25    20   ar
    26    13    16    1
    27    13    17    1
    28    11    12    1
