@<TRIPOS>MOLECULE
*****
 30 34 0 0 0
SMALL
GASTEIGER

@<TRIPOS>ATOM
      1 C          64.4176   90.7049   13.4067 C.3     1  UNL1        0.1045
      2 C          63.6004   91.2655   12.2806 C.3     1  UNL1        0.0342
      3 C          62.8261   90.1386   11.6639 C.3     1  UNL1        0.0874
      4 C          63.1646   88.8814   12.4088 C.2     1  UNL1        0.2261
      5 O          62.6160   87.5143   12.1263 O.2     1  UNL1       -0.2749
      6 N          64.1482   89.2314   13.4859 N.am    1  UNL1       -0.2731
      7 C          64.9110   91.8505   15.6857 C.ar    1  UNL1        0.1392
      8 C          65.8352   92.6271   16.5762 C.ar    1  UNL1        0.0368
      9 C          67.1901   93.0344   16.0780 C.ar    1  UNL1        0.0062
     10 C          67.6208   92.6653   14.6894 C.ar    1  UNL1        0.0368
     11 C          66.6967   91.8888   13.7990 C.ar    1  UNL1        0.1392
     12 C          65.3417   91.4814   14.2971 C.ar    1  UNL1        0.0636
     13 C          63.3728   90.1159   16.8583 C.3     1  UNL1        0.2525
     14 O          63.5561   91.4431   16.1838 O.3     1  UNL1       -0.4716
     15 O          67.1274   91.5197   12.4104 O.3     1  UNL1       -0.4716
     16 C          66.9891   92.5115   11.2937 C.3     1  UNL1        0.2525
     17 C          64.7558   88.2757   14.4695 C.3     1  UNL1        0.1204
     18 C          64.1222   86.9363   14.7034 C.ar    1  UNL1       -0.0021
     19 C          63.4726   86.6338   16.0212 C.ar    1  UNL1        0.0005
     20 C          62.8390   85.2945   16.2550 C.ar    1  UNL1        0.0372
     21 C          62.8549   84.2577   15.1711 C.ar    1  UNL1        0.1453
     22 O          62.3151   82.8595   15.1115 O.2     1  UNL1       -0.4535
     23 C          62.6310   82.2979   13.7570 C.ar    1  UNL1        0.1453
     24 C          62.3442   80.9652   13.1312 C.ar    1  UNL1        0.0375
     25 C          62.7926   80.6836   11.7278 C.ar    1  UNL1        0.0031
     26 C          63.5278   81.7348   10.9501 C.ar    1  UNL1        0.0002
     27 C          63.8145   83.0675   11.5759 C.ar    1  UNL1        0.0031
     28 C          63.3661   83.3490   12.9794 C.ar    1  UNL1        0.0375
     29 C          63.5045   84.5602   13.8533 C.ar    1  UNL1        0.0372
     30 C          64.1381   85.8995   13.6195 C.ar    1  UNL1        0.0005
@<TRIPOS>BOND
     1    13    14    1
     2    14     7    1
     3     7     8   ar
     4     8     9   ar
     5     9    10   ar
     6    10    11   ar
     7    11    15    1
     8    15    16    1
     9    11    12   ar
    10    12     1    1
    11     1     2    1
    12     2     3    1
    13     3     4    1
    14     4     5    2
    15     4     6   am
    16     6    17    1
    17    17    18    1
    18    18    19   ar
    19    19    20   ar
    20    20    21   ar
    21    21    22   ar
    22    22    23   ar
    23    23    24   ar
    24    24    25   ar
    25    25    26   ar
    26    26    27   ar
    27    27    28   ar
    28    28    29   ar
    29    29    30   ar
    30    12     7   ar
    31     6     1    1
    32    30    18   ar
    33    29    21   ar
    34    28    23   ar
@<TRIPOS>MOLECULE
*****
 30 34 0 0 0
SMALL
GASTEIGER

@<TRIPOS>ATOM
      1 C          64.4215   90.7426   13.3692 C.3     1  UNL1        0.1045
      2 C          63.6011   91.3076   12.2476 C.3     1  UNL1        0.0342
      3 C          62.8149   90.1854   11.6373 C.3     1  UNL1        0.0874
      4 C          63.1494   88.9267   12.3816 C.2     1  UNL1        0.2261
      5 O          62.5894   87.5632   12.1044 O.2     1  UNL1       -0.2749
      6 N          64.1423   89.2711   13.4519 N.am    1  UNL1       -0.2731
      7 C          66.7110   91.9119   13.7450 C.ar    1  UNL1        0.1392
      8 C          67.6463   92.6830   14.6285 C.ar    1  UNL1        0.0368
      9 C          67.2274   93.0559   16.0197 C.ar    1  UNL1        0.0062
     10 C          65.8733   92.6577   16.5274 C.ar    1  UNL1        0.0368
     11 C          64.9379   91.8867   15.6438 C.ar    1  UNL1        0.1392
     12 C          65.3568   91.5137   14.2526 C.ar    1  UNL1        0.0636
     13 C          66.9882   92.5300   11.2368 C.3     1  UNL1        0.2525
     14 O          67.1298   91.5389   12.3538 O.3     1  UNL1       -0.4716
     15 O          63.5838   91.4885   16.1515 O.3     1  UNL1       -0.4716
     16 C          63.3938   90.1576   16.8167 C.3     1  UNL1        0.2525
     17 C          64.7495   88.3124   14.4329 C.3     1  UNL1        0.1204
     18 C          64.1214   86.9684   14.6550 C.ar    1  UNL1       -0.0021
     19 C          63.4764   86.6504   15.9714 C.ar    1  UNL1        0.0005
     20 C          62.8484   85.3064   16.1935 C.ar    1  UNL1        0.0372
     21 C          62.8653   84.2806   15.0992 C.ar    1  UNL1        0.1453
     22 O          62.3305   82.8810   15.0271 O.2     1  UNL1       -0.4535
     23 C          62.6449   82.3341   13.6662 C.ar    1  UNL1        0.1453
     24 C          62.3615   81.0067   13.0279 C.ar    1  UNL1        0.0375
     25 C          62.8072   80.7408   11.6206 C.ar    1  UNL1        0.0031
     26 C          63.5364   81.8024   10.8516 C.ar    1  UNL1        0.0002
     27 C          63.8199   83.1298   11.4899 C.ar    1  UNL1        0.0031
     28 C          63.3741   83.3957   12.8972 C.ar    1  UNL1        0.0375
     29 C          63.5103   84.5986   13.7829 C.ar    1  UNL1        0.0372
     30 C          64.1384   85.9426   13.5608 C.ar    1  UNL1        0.0005
@<TRIPOS>BOND
     1    13    14    1
     2    14     7    1
     3     7     8   ar
     4     8     9   ar
     5     9    10   ar
     6    10    11   ar
     7    11    15    1
     8    15    16    1
     9    11    12   ar
    10    12     1    1
    11     1     2    1
    12     2     3    1
    13     3     4    1
    14     4     5    2
    15     4     6   am
    16     6    17    1
    17    17    18    1
    18    18    19   ar
    19    19    20   ar
    20    20    21   ar
    21    21    22   ar
    22    22    23   ar
    23    23    24   ar
    24    24    25   ar
    25    25    26   ar
    26    26    27   ar
    27    27    28   ar
    28    28    29   ar
    29    29    30   ar
    30    12     7   ar
    31     6     1    1
    32    30    18   ar
    33    29    21   ar
    34    28    23   ar
@<TRIPOS>MOLECULE
*****
 30 34 0 0 0
SMALL
GASTEIGER

@<TRIPOS>ATOM
      1 C          64.6745   91.0409   14.6873 C.3     1  UNL1        0.1045
      2 C          64.3686   91.8145   15.9355 C.3     1  UNL1        0.0342
      3 C          63.4996   90.9596   16.8095 C.3     1  UNL1        0.0874
      4 C          63.2683   89.6576   16.1015 C.2     1  UNL1        0.2261
      5 O          62.4539   88.5074   16.6148 O.2     1  UNL1       -0.2749
      6 N          63.9944   89.7079   14.7899 N.am    1  UNL1       -0.2731
      7 C          66.9918   91.6986   13.7138 C.ar    1  UNL1        0.1392
      8 C          67.8305   92.1745   12.5648 C.ar    1  UNL1        0.0368
      9 C          67.1905   92.4686   11.2404 C.ar    1  UNL1        0.0062
     10 C          65.7120   92.2868   11.0650 C.ar    1  UNL1        0.0368
     11 C          64.8733   91.8109   12.2140 C.ar    1  UNL1        0.1392
     12 C          65.5131   91.5168   13.5384 C.ar    1  UNL1        0.0636
     13 C          68.0508   92.5313   15.9352 C.3     1  UNL1        0.2525
     14 O          67.6317   91.4045   15.0382 O.3     1  UNL1       -0.4716
     15 O          63.3947   91.6291   12.0386 O.3     1  UNL1       -0.4716
     16 C          62.8663   90.8916   10.8440 C.3     1  UNL1        0.2525
     17 C          64.0337   88.6167   13.7614 C.3     1  UNL1        0.1204
     18 C          64.0159   87.1797   14.1915 C.ar    1  UNL1       -0.0021
     19 C          64.3122   86.8198   15.6172 C.ar    1  UNL1        0.0005
     20 C          64.2944   85.3829   16.0471 C.ar    1  UNL1        0.0372
     21 C          63.9804   84.3058   15.0514 C.ar    1  UNL1        0.1453
     22 O          63.8898   82.8142   15.1813 O.2     1  UNL1       -0.4535
     23 C          63.5375   82.2523   13.8359 C.ar    1  UNL1        0.1453
     24 C          63.3160   80.8465   13.3620 C.ar    1  UNL1        0.0375
     25 C          62.9675   80.5850   11.9267 C.ar    1  UNL1        0.0031
     26 C          62.8404   81.7293   10.9653 C.ar    1  UNL1        0.0002
     27 C          63.0619   83.1351   11.4391 C.ar    1  UNL1        0.0031
     28 C          63.4104   83.3966   12.8744 C.ar    1  UNL1        0.0375
     29 C          63.6841   84.6658   13.6257 C.ar    1  UNL1        0.0372
     30 C          63.7019   86.1027   13.1957 C.ar    1  UNL1        0.0005
@<TRIPOS>BOND
     1    13    14    1
     2    14     7    1
     3     7     8   ar
     4     8     9   ar
     5     9    10   ar
     6    10    11   ar
     7    11    15    1
     8    15    16    1
     9    11    12   ar
    10    12     1    1
    11     1     2    1
    12     2     3    1
    13     3     4    1
    14     4     5    2
    15     4     6   am
    16     6    17    1
    17    17    18    1
    18    18    19   ar
    19    19    20   ar
    20    20    21   ar
    21    21    22   ar
    22    22    23   ar
    23    23    24   ar
    24    24    25   ar
    25    25    26   ar
    26    26    27   ar
    27    27    28   ar
    28    28    29   ar
    29    29    30   ar
    30    12     7   ar
    31     6     1    1
    32    30    18   ar
    33    29    21   ar
    34    28    23   ar
@<TRIPOS>MOLECULE
*****
 30 34 0 0 0
SMALL
GASTEIGER

@<TRIPOS>ATOM
      1 C          61.4404   86.3967   10.2096 C.3     1  UNL1        0.1045
      2 C          60.2836   86.4255    9.2551 C.3     1  UNL1        0.0342
      3 C          59.5661   87.7303    9.4356 C.3     1  UNL1        0.0874
      4 C          60.2794   88.5080   10.5016 C.2     1  UNL1        0.2261
      5 O          59.9009   89.8706   11.0015 O.2     1  UNL1       -0.2749
      6 N          61.4378   87.6838   10.9799 N.am    1  UNL1       -0.2731
      7 C          63.1854   84.7741    9.1741 C.ar    1  UNL1        0.1392
      8 C          64.1716   83.6548    9.3307 C.ar    1  UNL1        0.0368
      9 C          64.3990   83.0388   10.6793 C.ar    1  UNL1        0.0062
     10 C          63.6403   83.5421   11.8714 C.ar    1  UNL1        0.0368
     11 C          62.6540   84.6614   11.7148 C.ar    1  UNL1        0.1392
     12 C          62.4266   85.2774   10.3662 C.ar    1  UNL1        0.0636
     13 C          62.3819   84.5663    6.7122 C.3     1  UNL1        0.2525
     14 O          62.9580   85.3901    7.8255 O.3     1  UNL1       -0.4716
     15 O          61.8953   85.1647   12.9068 O.3     1  UNL1       -0.4716
     16 C          62.2459   84.6749   14.2805 C.3     1  UNL1        0.2525
     17 C          62.4210   88.0775   12.0422 C.3     1  UNL1        0.1204
     18 C          63.1566   89.3806   11.9375 C.ar    1  UNL1       -0.0021
     19 C          63.0412   90.2090   10.6923 C.ar    1  UNL1        0.0005
     20 C          63.7768   91.5121   10.5877 C.ar    1  UNL1        0.0372
     21 C          64.6277   91.9867   11.7281 C.ar    1  UNL1        0.1453
     22 O          65.4633   93.2188   11.9122 O.2     1  UNL1       -0.4535
     23 C          66.0950   93.1518   13.2710 C.ar    1  UNL1        0.1453
     24 C          67.0180   94.0859   13.9959 C.ar    1  UNL1        0.0375
     25 C          67.4959   93.7465   15.3766 C.ar    1  UNL1        0.0031
     26 C          67.0508   92.4730   16.0324 C.ar    1  UNL1        0.0002
     27 C          66.1278   91.5389   15.3075 C.ar    1  UNL1        0.0031
     28 C          65.6499   91.8783   13.9268 C.ar    1  UNL1        0.0375
     29 C          64.7431   91.1582   12.9733 C.ar    1  UNL1        0.0372
     30 C          64.0075   89.8552   13.0779 C.ar    1  UNL1        0.0005
@<TRIPOS>BOND
     1    13    14    1
     2    14     7    1
     3     7     8   ar
     4     8     9   ar
     5     9    10   ar
     6    10    11   ar
     7    11    15    1
     8    15    16    1
     9    11    12   ar
    10    12     1    1
    11     1     2    1
    12     2     3    1
    13     3     4    1
    14     4     5    2
    15     4     6   am
    16     6    17    1
    17    17    18    1
    18    18    19   ar
    19    19    20   ar
    20    20    21   ar
    21    21    22   ar
    22    22    23   ar
    23    23    24   ar
    24    24    25   ar
    25    25    26   ar
    26    26    27   ar
    27    27    28   ar
    28    28    29   ar
    29    29    30   ar
    30    12     7   ar
    31     6     1    1
    32    30    18   ar
    33    29    21   ar
    34    28    23   ar
@<TRIPOS>MOLECULE
*****
 30 34 0 0 0
SMALL
GASTEIGER

@<TRIPOS>ATOM
      1 C          64.6883   91.0293   14.7097 C.3     1  UNL1        0.1045
      2 C          64.3753   91.7968   15.9600 C.3     1  UNL1        0.0342
      3 C          63.4920   90.9422   16.8198 C.3     1  UNL1        0.0874
      4 C          63.2590   89.6464   16.1010 C.2     1  UNL1        0.2261
      5 O          62.4319   88.4984   16.5988 O.2     1  UNL1       -0.2749
      6 N          63.9983   89.7003   14.7969 N.am    1  UNL1       -0.2731
      7 C          64.9137   91.8317   12.2490 C.ar    1  UNL1        0.1392
      8 C          65.7668   92.3094   11.1113 C.ar    1  UNL1        0.0368
      9 C          67.2473   92.4623   11.2969 C.ar    1  UNL1        0.0062
     10 C          67.8749   92.1375   12.6201 C.ar    1  UNL1        0.0368
     11 C          67.0219   91.6599   13.7577 C.ar    1  UNL1        0.1392
     12 C          65.5413   91.5070   13.5722 C.ar    1  UNL1        0.0636
     13 C          62.9004   90.8693   10.9185 C.3     1  UNL1        0.2525
     14 O          63.4331   91.6788   12.0635 O.3     1  UNL1       -0.4716
     15 O          67.6494   91.3351   15.0808 O.3     1  UNL1       -0.4716
     16 C          68.0422   92.4402   16.0160 C.3     1  UNL1        0.2525
     17 C          64.0403   88.6155   13.7618 C.3     1  UNL1        0.1204
     18 C          64.0237   87.1759   14.1828 C.ar    1  UNL1       -0.0021
     19 C          64.3216   86.8072   15.6059 C.ar    1  UNL1        0.0005
     20 C          64.3050   85.3676   16.0270 C.ar    1  UNL1        0.0372
     21 C          63.9904   84.2967   15.0248 C.ar    1  UNL1        0.1453
     22 O          63.9006   82.8043   15.1455 O.2     1  UNL1       -0.4535
     23 C          63.5472   82.2506   13.7970 C.ar    1  UNL1        0.1453
     24 C          63.3259   80.8476   13.3146 C.ar    1  UNL1        0.0375
     25 C          62.9759   80.5949   11.8781 C.ar    1  UNL1        0.0031
     26 C          62.8472   81.7452   10.9240 C.ar    1  UNL1        0.0002
     27 C          63.0686   83.1481   11.4063 C.ar    1  UNL1        0.0031
     28 C          63.4185   83.4008   12.8429 C.ar    1  UNL1        0.0375
     29 C          63.6925   84.6654   13.6017 C.ar    1  UNL1        0.0372
     30 C          63.7091   86.1050   13.1807 C.ar    1  UNL1        0.0005
@<TRIPOS>BOND
     1    13    14    1
     2    14     7    1
     3     7     8   ar
     4     8     9   ar
     5     9    10   ar
     6    10    11   ar
     7    11    15    1
     8    15    16    1
     9    11    12   ar
    10    12     1    1
    11     1     2    1
    12     2     3    1
    13     3     4    1
    14     4     5    2
    15     4     6   am
    16     6    17    1
    17    17    18    1
    18    18    19   ar
    19    19    20   ar
    20    20    21   ar
    21    21    22   ar
    22    22    23   ar
    23    23    24   ar
    24    24    25   ar
    25    25    26   ar
    26    26    27   ar
    27    27    28   ar
    28    28    29   ar
    29    29    30   ar
    30    12     7   ar
    31     6     1    1
    32    30    18   ar
    33    29    21   ar
    34    28    23   ar
@<TRIPOS>MOLECULE
*****
 30 34 0 0 0
SMALL
GASTEIGER

@<TRIPOS>ATOM
      1 C          61.4329   86.3895   10.1977 C.3     1  UNL1        0.1045
      2 C          60.2820   86.4124    9.2360 C.3     1  UNL1        0.0342
      3 C          59.5557   87.7128    9.4132 C.3     1  UNL1        0.0874
      4 C          60.2577   88.4936   10.4844 C.2     1  UNL1        0.2261
      5 O          59.8679   89.8534   10.9832 O.2     1  UNL1       -0.2749
      6 N          61.4179   87.6758   10.9693 N.am    1  UNL1       -0.2731
      7 C          62.6518   84.6640   11.7101 C.ar    1  UNL1        0.1392
      8 C          63.6436   83.5504   11.8719 C.ar    1  UNL1        0.0368
      9 C          64.4083   83.0487   10.6831 C.ar    1  UNL1        0.0062
     10 C          64.1813   83.6605    9.3325 C.ar    1  UNL1        0.0368
     11 C          63.1895   84.7741    9.1707 C.ar    1  UNL1        0.1392
     12 C          62.4247   85.2759   10.3595 C.ar    1  UNL1        0.0636
     13 C          62.2314   84.6751   14.2739 C.3     1  UNL1        0.2525
     14 O          61.8869   85.1658   12.8989 O.3     1  UNL1       -0.4716
     15 O          62.9625   85.3860    7.8201 O.3     1  UNL1       -0.4716
     16 C          62.3829   84.5599    6.7103 C.3     1  UNL1        0.2525
     17 C          62.3920   88.0742   12.0380 C.3     1  UNL1        0.1204
     18 C          63.1350   89.3729   11.9294 C.ar    1  UNL1       -0.0021
     19 C          63.0309   90.1941   10.6785 C.ar    1  UNL1        0.0005
     20 C          63.7738   91.4926   10.5698 C.ar    1  UNL1        0.0372
     21 C          64.6208   91.9699   11.7121 C.ar    1  UNL1        0.1453
     22 O          65.4617   93.1988   11.8932 O.2     1  UNL1       -0.4535
     23 C          66.0854   93.1371   13.2560 C.ar    1  UNL1        0.1453
     24 C          67.0092   94.0710   13.9802 C.ar    1  UNL1        0.0375
     25 C          67.4775   93.7377   15.3657 C.ar    1  UNL1        0.0031
     26 C          67.0222   92.4707   16.0269 C.ar    1  UNL1        0.0002
     27 C          66.0984   91.5369   15.3026 C.ar    1  UNL1        0.0031
     28 C          65.6300   91.8701   13.9172 C.ar    1  UNL1        0.0375
     29 C          64.7249   91.1487   12.9630 C.ar    1  UNL1        0.0372
     30 C          63.9819   89.8502   13.0717 C.ar    1  UNL1        0.0005
@<TRIPOS>BOND
     1    13    14    1
     2    14     7    1
     3     7     8   ar
     4     8     9   ar
     5     9    10   ar
     6    10    11   ar
     7    11    15    1
     8    15    16    1
     9    11    12   ar
    10    12     1    1
    11     1     2    1
    12     2     3    1
    13     3     4    1
    14     4     5    2
    15     4     6   am
    16     6    17    1
    17    17    18    1
    18    18    19   ar
    19    19    20   ar
    20    20    21   ar
    21    21    22   ar
    22    22    23   ar
    23    23    24   ar
    24    24    25   ar
    25    25    26   ar
    26    26    27   ar
    27    27    28   ar
    28    28    29   ar
    29    29    30   ar
    30    12     7   ar
    31     6     1    1
    32    30    18   ar
    33    29    21   ar
    34    28    23   ar
@<TRIPOS>MOLECULE
*****
 30 34 0 0 0
SMALL
GASTEIGER

@<TRIPOS>ATOM
      1 C          65.1591   91.3887   14.5820 C.3     1  UNL1        0.1045
      2 C          64.8898   92.2488   15.7811 C.3     1  UNL1        0.0342
      3 C          63.8432   91.5693   16.6134 C.3     1  UNL1        0.0874
      4 C          63.4655   90.2892   15.9288 C.2     1  UNL1        0.2261
      5 O          62.4525   89.2953   16.4143 O.2     1  UNL1       -0.2749
      6 N          64.2788   90.1776   14.6733 N.am    1  UNL1       -0.2731
      7 C          65.6410   92.0269   12.1101 C.ar    1  UNL1        0.1392
      8 C          66.6188   92.3254   11.0124 C.ar    1  UNL1        0.0368
      9 C          68.0925   92.2843   11.2892 C.ar    1  UNL1        0.0062
     10 C          68.5883   91.9447   12.6635 C.ar    1  UNL1        0.0368
     11 C          67.6105   91.6461   13.7612 C.ar    1  UNL1        0.1392
     12 C          66.1369   91.6872   13.4845 C.ar    1  UNL1        0.0636
     13 C          63.6487   91.6984   10.4753 C.3     1  UNL1        0.2525
     14 O          64.1674   92.0680   11.8334 O.3     1  UNL1       -0.4716
     15 O          68.1064   91.3065   15.1355 O.3     1  UNL1       -0.4716
     16 C          68.6080   92.3918   16.0413 C.3     1  UNL1        0.2525
     17 C          64.2218   89.0524   13.6830 C.3     1  UNL1        0.1204
     18 C          63.0723   88.9546   12.7243 C.ar    1  UNL1       -0.0021
     19 C          61.8915   89.8676   12.8733 C.ar    1  UNL1        0.0005
     20 C          60.7421   89.7697   11.9146 C.ar    1  UNL1        0.0372
     21 C          60.7734   88.7589   10.8068 C.ar    1  UNL1        0.1453
     22 O          59.7946   88.4322    9.7181 O.2     1  UNL1       -0.4535
     23 C          60.3704   87.3173    8.8963 C.ar    1  UNL1        0.1453
     24 C          59.8518   86.5853    7.6941 C.ar    1  UNL1        0.0375
     25 C          60.6679   85.4909    7.0727 C.ar    1  UNL1        0.0031
     26 C          62.0026   85.1285    7.6534 C.ar    1  UNL1        0.0002
     27 C          62.5212   85.8605    8.8555 C.ar    1  UNL1        0.0031
     28 C          61.7051   86.9549    9.4770 C.ar    1  UNL1        0.0375
     29 C          61.9541   87.8458   10.6577 C.ar    1  UNL1        0.0372
     30 C          63.1036   87.9437   11.6165 C.ar    1  UNL1        0.0005
@<TRIPOS>BOND
     1    13    14    1
     2    14     7    1
     3     7     8   ar
     4     8     9   ar
     5     9    10   ar
     6    10    11   ar
     7    11    15    1
     8    15    16    1
     9    11    12   ar
    10    12     1    1
    11     1     2    1
    12     2     3    1
    13     3     4    1
    14     4     5    2
    15     4     6   am
    16     6    17    1
    17    17    18    1
    18    18    19   ar
    19    19    20   ar
    20    20    21   ar
    21    21    22   ar
    22    22    23   ar
    23    23    24   ar
    24    24    25   ar
    25    25    26   ar
    26    26    27   ar
    27    27    28   ar
    28    28    29   ar
    29    29    30   ar
    30    12     7   ar
    31     6     1    1
    32    30    18   ar
    33    29    21   ar
    34    28    23   ar
@<TRIPOS>MOLECULE
*****
 30 34 0 0 0
SMALL
GASTEIGER

@<TRIPOS>ATOM
      1 C          65.1782   91.3957   14.5700 C.3     1  UNL1        0.1045
      2 C          64.9015   92.2590   15.7650 C.3     1  UNL1        0.0342
      3 C          63.8465   91.5840   16.5904 C.3     1  UNL1        0.0874
      4 C          63.4710   90.3034   15.9055 C.2     1  UNL1        0.2261
      5 O          62.4516   89.3131   16.3849 O.2     1  UNL1       -0.2749
      6 N          64.2941   90.1870   14.6568 N.am    1  UNL1       -0.2731
      7 C          67.6371   91.6324   13.7651 C.ar    1  UNL1        0.1392
      8 C          68.6245   91.9261   12.6747 C.ar    1  UNL1        0.0368
      9 C          68.1403   92.2767   11.2990 C.ar    1  UNL1        0.0062
     10 C          66.6688   92.3336   11.0136 C.ar    1  UNL1        0.0368
     11 C          65.6815   92.0399   12.1039 C.ar    1  UNL1        0.1392
     12 C          66.1655   91.6893   13.4797 C.ar    1  UNL1        0.0636
     13 C          68.5702   92.3647   16.0765 C.3     1  UNL1        0.2525
     14 O          68.1212   91.2818   15.1408 O.3     1  UNL1       -0.4716
     15 O          64.2100   92.0969   11.8185 O.3     1  UNL1       -0.4716
     16 C          63.6903   91.6832   10.4736 C.3     1  UNL1        0.2525
     17 C          64.2421   89.0599   13.6685 C.3     1  UNL1        0.1204
     18 C          63.0901   88.9519   12.7138 C.ar    1  UNL1       -0.0021
     19 C          61.9035   89.8571   12.8648 C.ar    1  UNL1        0.0005
     20 C          60.7516   89.7491   11.9102 C.ar    1  UNL1        0.0372
     21 C          60.7861   88.7359   10.8047 C.ar    1  UNL1        0.1453
     22 O          59.8059   88.4000    9.7201 O.2     1  UNL1       -0.4535
     23 C          60.3866   87.2872    8.8988 C.ar    1  UNL1        0.1453
     24 C          59.8690   86.5488    7.7001 C.ar    1  UNL1        0.0375
     25 C          60.6906   85.4587    7.0784 C.ar    1  UNL1        0.0031
     26 C          62.0297   85.1069    7.6554 C.ar    1  UNL1        0.0002
     27 C          62.5473   85.8452    8.8541 C.ar    1  UNL1        0.0031
     28 C          61.7258   86.9354    9.4758 C.ar    1  UNL1        0.0375
     29 C          61.9727   87.8307   10.6537 C.ar    1  UNL1        0.0372
     30 C          63.1246   87.9387   11.6083 C.ar    1  UNL1        0.0005
@<TRIPOS>BOND
     1    13    14    1
     2    14     7    1
     3     7     8   ar
     4     8     9   ar
     5     9    10   ar
     6    10    11   ar
     7    11    15    1
     8    15    16    1
     9    11    12   ar
    10    12     1    1
    11     1     2    1
    12     2     3    1
    13     3     4    1
    14     4     5    2
    15     4     6   am
    16     6    17    1
    17    17    18    1
    18    18    19   ar
    19    19    20   ar
    20    20    21   ar
    21    21    22   ar
    22    22    23   ar
    23    23    24   ar
    24    24    25   ar
    25    25    26   ar
    26    26    27   ar
    27    27    28   ar
    28    28    29   ar
    29    29    30   ar
    30    12     7   ar
    31     6     1    1
    32    30    18   ar
    33    29    21   ar
    34    28    23   ar
@<TRIPOS>MOLECULE
*****
 30 34 0 0 0
SMALL
GASTEIGER

@<TRIPOS>ATOM
      1 C          64.3984   90.5975   14.8995 C.3     1  UNL1        0.1045
      2 C          63.6490   91.3073   15.9880 C.3     1  UNL1        0.0342
      3 C          62.9760   90.2716   16.8390 C.3     1  UNL1        0.0874
      4 C          63.3094   88.9215   16.2765 C.2     1  UNL1        0.2261
      5 O          62.8453   87.6018   16.8177 O.2     1  UNL1       -0.2749
      6 N          64.1885   89.1230   15.0779 N.am    1  UNL1       -0.2731
      7 C          66.6527   91.5909   14.0741 C.ar    1  UNL1        0.1392
      8 C          67.4687   92.2414   12.9966 C.ar    1  UNL1        0.0368
      9 C          66.8462   92.5488   11.6669 C.ar    1  UNL1        0.0062
     10 C          65.4079   92.2059   11.4148 C.ar    1  UNL1        0.0368
     11 C          64.5919   91.5554   12.4923 C.ar    1  UNL1        0.1392
     12 C          65.2143   91.2479   13.8220 C.ar    1  UNL1        0.0636
     13 C          68.1419   92.3038   16.0801 C.3     1  UNL1        0.2525
     14 O          67.2750   91.2834   15.4038 O.3     1  UNL1       -0.4716
     15 O          63.1536   91.2125   12.2402 O.3     1  UNL1       -0.4716
     16 C          62.6117   91.2331   10.8416 C.3     1  UNL1        0.2525
     17 C          64.7577   88.0401   14.2100 C.3     1  UNL1        0.1204
     18 C          63.8635   87.2797   13.2760 C.ar    1  UNL1       -0.0021
     19 C          63.7307   85.7916   13.4101 C.ar    1  UNL1        0.0005
     20 C          62.8365   85.0313   12.4761 C.ar    1  UNL1        0.0372
     21 C          62.0751   85.7590   11.4081 C.ar    1  UNL1        0.1453
     22 O          61.1250   85.2813   10.3502 O.2     1  UNL1       -0.4535
     23 C          60.6706   86.4741    9.5623 C.ar    1  UNL1        0.1453
     24 C          59.7339   86.6110    8.3988 C.ar    1  UNL1        0.0375
     25 C          59.4665   87.9627    7.8062 C.ar    1  UNL1        0.0031
     26 C          60.1358   89.1777    8.3772 C.ar    1  UNL1        0.0002
     27 C          61.0725   89.0408    9.5407 C.ar    1  UNL1        0.0031
     28 C          61.3399   87.6891   10.1333 C.ar    1  UNL1        0.0375
     29 C          62.2079   87.2471   11.2740 C.ar    1  UNL1        0.0372
     30 C          63.1021   88.0074   12.2080 C.ar    1  UNL1        0.0005
@<TRIPOS>BOND
     1    13    14    1
     2    14     7    1
     3     7     8   ar
     4     8     9   ar
     5     9    10   ar
     6    10    11   ar
     7    11    15    1
     8    15    16    1
     9    11    12   ar
    10    12     1    1
    11     1     2    1
    12     2     3    1
    13     3     4    1
    14     4     5    2
    15     4     6   am
    16     6    17    1
    17    17    18    1
    18    18    19   ar
    19    19    20   ar
    20    20    21   ar
    21    21    22   ar
    22    22    23   ar
    23    23    24   ar
    24    24    25   ar
    25    25    26   ar
    26    26    27   ar
    27    27    28   ar
    28    28    29   ar
    29    29    30   ar
    30    12     7   ar
    31     6     1    1
    32    30    18   ar
    33    29    21   ar
    34    28    23   ar
