@<TRIPOS>MOLECULE
*****
 29 31 0 0 0
SMALL
GASTEIGER

@<TRIPOS>ATOM
      1 C          62.2692   86.2133   10.8180 C.ar    1  UNL1        0.0191
      2 C          61.8025   87.1087    9.7087 C.ar    1  UNL1        0.0063
      3 C          61.8604   88.5986    9.8728 C.ar    1  UNL1        0.0581
      4 C          62.3851   89.1931   11.1461 C.ar    1  UNL1        0.2297
      5 N          62.8518   88.2977   12.2553 N.ar    1  UNL1       -0.2098
      6 C          62.7938   86.8077   12.0912 C.ar    1  UNL1        0.1020
      7 C          63.0604   83.8400   11.5191 C.2     1  UNL1       -0.0069
      8 C          62.2112   84.7235   10.6539 C.2     1  UNL1       -0.0014
      9 C          63.0024   82.3502   11.3550 C.3     1  UNL1        0.0939
     10 C          63.9833   81.6558   10.4572 C.3     1  UNL1        0.0262
     11 C          61.0841   80.4901   14.2893 C.3     1  UNL1        0.0946
     12 C          62.1229   81.2856   13.5557 C.2     1  UNL1        0.2232
     13 O          63.3208   81.8119   14.2891 O.2     1  UNL1       -0.2751
     14 N          61.9636   81.5547   12.0886 N.am    1  UNL1       -0.3022
     15 H          61.1774   81.2092   11.6072 H       1  UNL1        0.1497
     16 O          62.4431   90.6830   11.3102 O.3     1  UNL1       -0.4352
     17 C          63.7241   91.3421   11.7282 C.ar    1  UNL1        0.1582
     18 C          64.5390   92.1020   10.7241 C.ar    1  UNL1        0.0400
     19 C          65.8200   92.7611   11.1421 C.ar    1  UNL1        0.0228
     20 C          66.2859   92.6604   12.5643 C.ar    1  UNL1        0.0885
     21 N          67.4970   93.2018   13.2644 N.ar    1  UNL1       -0.2427
     22 C          67.4305   92.7765   14.7013 C.ar    1  UNL1        0.0878
     23 S          66.1783   91.9722   14.8892 S.2     1  UNL1       -0.0698
     24 C          65.4709   91.9005   13.5685 C.ar    1  UNL1        0.0617
     25 C          64.1900   91.2413   13.1504 C.ar    1  UNL1        0.0996
     26 CL         63.3750   90.4814   14.1546 Cl      1  UNL1       -0.0785
     27 C          68.4390   93.0988   15.7638 C.3     1  UNL1        0.0466
     28 C          68.9292   94.5067   15.9302 C.3     1  UNL1        0.0069
     29 C          68.9574   92.0134   16.6599 C.3     1  UNL1        0.0069
@<TRIPOS>BOND
     1    11    12    1
     2    12    13    2
     3    12    14   am
     4    14     9    1
     5     9    10    1
     6     9     7    1
     7     7     8    2
     8     8     1    1
     9     1     2   ar
    10     2     3   ar
    11     3     4   ar
    12     4    16    1
    13    16    17    1
    14    17    18   ar
    15    18    19   ar
    16    19    20   ar
    17    20    21   ar
    18    21    22   ar
    19    22    27    1
    20    27    28    1
    21    27    29    1
    22    22    23   ar
    23    23    24   ar
    24    24    25   ar
    25    25    26    1
    26     4     5   ar
    27     5     6   ar
    28     6     1   ar
    29    25    17   ar
    30    24    20   ar
    31    14    15    1
@<TRIPOS>MOLECULE
*****
 29 31 0 0 0
SMALL
GASTEIGER

@<TRIPOS>ATOM
      1 C          63.6898   86.2330   15.7093 C.ar    1  UNL1        0.0191
      2 C          64.3693   87.0091   14.6202 C.ar    1  UNL1        0.0063
      3 C          64.3517   88.5088   14.6451 C.ar    1  UNL1        0.0581
      4 C          63.6547   89.2324   15.7589 C.ar    1  UNL1        0.2297
      5 N          62.9752   88.4563   16.8479 N.ar    1  UNL1       -0.2098
      6 C          62.9927   86.9565   16.8230 C.ar    1  UNL1        0.1020
      7 C          63.3826   84.0004   14.4166 C.2     1  UNL1       -0.0069
      8 C          63.7074   84.7333   15.6844 C.2     1  UNL1       -0.0014
      9 C          63.4002   82.5007   14.3918 C.3     1  UNL1        0.0939
     10 C          64.6417   81.7722   13.9697 C.3     1  UNL1        0.0262
     11 C          60.2757   80.0619   14.1922 C.3     1  UNL1        0.0946
     12 C          61.4995   80.8330   13.7950 C.2     1  UNL1        0.2232
     13 O          62.0463   80.7075   12.4039 O.2     1  UNL1       -0.2751
     14 N          62.1764   81.7296   14.7890 N.am    1  UNL1       -0.3022
     15 H          61.8175   81.8120   15.7020 H       1  UNL1        0.1497
     16 O          63.6371   90.7321   15.7837 O.3     1  UNL1       -0.4352
     17 C          64.6096   91.5075   14.9452 C.ar    1  UNL1        0.1582
     18 C          65.7621   92.2149   15.5942 C.ar    1  UNL1        0.0400
     19 C          66.7346   92.9903   14.7557 C.ar    1  UNL1        0.0228
     20 C          66.5545   93.0582   13.2681 C.ar    1  UNL1        0.0885
     21 N          67.3458   93.7399   12.1915 N.ar    1  UNL1       -0.2427
     22 C          66.6822   93.4538   10.8770 C.ar    1  UNL1        0.0878
     23 S          65.4809   92.5953   11.1412 S.2     1  UNL1       -0.0698
     24 C          65.4020   92.3508   12.6191 C.ar    1  UNL1        0.0617
     25 C          64.4295   91.5755   13.4576 C.ar    1  UNL1        0.0996
     26 CL         63.2770   90.8681   12.8086 Cl      1  UNL1       -0.0785
     27 C          67.1397   93.9407    9.5340 C.3     1  UNL1        0.0466
     28 C          68.1373   93.1434    8.7471 C.3     1  UNL1        0.0069
     29 C          66.5996   95.2248    8.9779 C.3     1  UNL1        0.0069
@<TRIPOS>BOND
     1    11    12    1
     2    12    13    2
     3    12    14   am
     4    14     9    1
     5     9    10    1
     6     9     7    1
     7     7     8    2
     8     8     1    1
     9     1     2   ar
    10     2     3   ar
    11     3     4   ar
    12     4    16    1
    13    16    17    1
    14    17    18   ar
    15    18    19   ar
    16    19    20   ar
    17    20    21   ar
    18    21    22   ar
    19    22    27    1
    20    27    28    1
    21    27    29    1
    22    22    23   ar
    23    23    24   ar
    24    24    25   ar
    25    25    26    1
    26     4     5   ar
    27     5     6   ar
    28     6     1   ar
    29    25    17   ar
    30    24    20   ar
    31    14    15    1
@<TRIPOS>MOLECULE
*****
 29 31 0 0 0
SMALL
GASTEIGER

@<TRIPOS>ATOM
      1 C          63.8010   85.7815   13.4520 C.ar    1  UNL1        0.0191
      2 C          64.3682   86.1976   14.7769 C.ar    1  UNL1        0.0063
      3 C          64.3650   87.6444   15.1730 C.ar    1  UNL1        0.0581
      4 C          63.7947   88.6751   14.2443 C.ar    1  UNL1        0.2297
      5 N          63.2275   88.2589   12.9195 N.ar    1  UNL1       -0.2098
      6 C          63.2307   86.8121   12.5234 C.ar    1  UNL1        0.1020
      7 C          63.1883   83.9120   11.7552 C.2     1  UNL1       -0.0069
      8 C          63.8041   84.3348   13.0560 C.2     1  UNL1       -0.0014
      9 C          63.1915   82.4652   11.3591 C.3     1  UNL1        0.0939
     10 C          64.1556   81.9743   10.3200 C.3     1  UNL1        0.0262
     11 C          61.6553   79.8371   13.9053 C.3     1  UNL1        0.0946
     12 C          62.6161   80.7929   13.2623 C.2     1  UNL1        0.2232
     13 O          63.9622   81.0320   13.8795 O.2     1  UNL1       -0.2751
     14 N          62.2307   81.5095   12.0021 N.am    1  UNL1       -0.3022
     15 H          61.3472   81.3525   11.5971 H       1  UNL1        0.1497
     16 O          63.7915   90.1218   14.6404 O.3     1  UNL1       -0.4352
     17 C          64.7204   91.0865   13.9645 C.ar    1  UNL1        0.1582
     18 C          65.9694   91.5383   14.6613 C.ar    1  UNL1        0.0400
     19 C          66.8983   92.5029   13.9854 C.ar    1  UNL1        0.0228
     20 C          66.5780   93.0156   12.6126 C.ar    1  UNL1        0.0885
     21 N          67.2982   93.9664   11.7031 N.ar    1  UNL1       -0.2427
     22 C          66.4941   94.1022   10.4441 C.ar    1  UNL1        0.0878
     23 S          65.2771   93.2353   10.5755 S.2     1  UNL1       -0.0698
     24 C          65.3289   92.5638   11.9158 C.ar    1  UNL1        0.0617
     25 C          64.4001   91.5992   12.5917 C.ar    1  UNL1        0.0996
     26 CL         63.1510   91.1473   11.8948 Cl      1  UNL1       -0.0785
     27 C          66.8455   94.9551    9.2612 C.3     1  UNL1        0.0466
     28 C          66.4079   96.3891    9.2142 C.3     1  UNL1        0.0069
     29 C          67.6343   94.3741    8.1254 C.3     1  UNL1        0.0069
@<TRIPOS>BOND
     1    11    12    1
     2    12    13    2
     3    12    14   am
     4    14     9    1
     5     9    10    1
     6     9     7    1
     7     7     8    2
     8     8     1    1
     9     1     2   ar
    10     2     3   ar
    11     3     4   ar
    12     4    16    1
    13    16    17    1
    14    17    18   ar
    15    18    19   ar
    16    19    20   ar
    17    20    21   ar
    18    21    22   ar
    19    22    27    1
    20    27    28    1
    21    27    29    1
    22    22    23   ar
    23    23    24   ar
    24    24    25   ar
    25    25    26    1
    26     4     5   ar
    27     5     6   ar
    28     6     1   ar
    29    25    17   ar
    30    24    20   ar
    31    14    15    1
@<TRIPOS>MOLECULE
*****
 29 31 0 0 0
SMALL
GASTEIGER

@<TRIPOS>ATOM
      1 C          65.6863   92.7810   12.7271 C.ar    1  UNL1        0.0191
      2 C          66.4232   92.2236   13.9088 C.ar    1  UNL1        0.0063
      3 C          65.9798   90.9310   14.5275 C.ar    1  UNL1        0.0581
      4 C          64.7997   90.1959   13.9646 C.ar    1  UNL1        0.2297
      5 N          64.0629   90.7533   12.7829 N.ar    1  UNL1       -0.2098
      6 C          64.5062   92.0460   12.1642 C.ar    1  UNL1        0.1020
      7 C          65.3808   94.6411   10.9392 C.2     1  UNL1       -0.0069
      8 C          66.1296   94.0735   12.1084 C.2     1  UNL1       -0.0014
      9 C          65.8242   95.9336   10.3205 C.3     1  UNL1        0.0939
     10 C          66.8201   96.8021   11.0304 C.3     1  UNL1        0.0262
     11 C          65.6144   96.8340    6.4611 C.3     1  UNL1        0.0946
     12 C          66.1669   96.4100    7.7896 C.2     1  UNL1        0.2232
     13 O          67.6147   96.0383    7.9156 O.2     1  UNL1       -0.2751
     14 N          65.2716   96.3576    8.9920 N.am    1  UNL1       -0.3022
     15 H          64.3214   96.6016    8.9092 H       1  UNL1        0.1497
     16 O          64.3563   88.9033   14.5832 O.3     1  UNL1       -0.4352
     17 C          63.8576   87.7877   13.7133 C.ar    1  UNL1        0.1582
     18 C          63.1136   88.0981   12.4485 C.ar    1  UNL1        0.0400
     19 C          62.6149   86.9824   11.5785 C.ar    1  UNL1        0.0228
     20 C          62.8603   85.5564   11.9736 C.ar    1  UNL1        0.0885
     21 N          62.4913   84.2567   11.3220 N.ar    1  UNL1       -0.2427
     22 C          63.0074   83.1430   12.1842 C.ar    1  UNL1        0.0878
     23 S          63.6953   83.7544   13.3687 S.2     1  UNL1       -0.0698
     24 C          63.6044   85.2460   13.2385 C.ar    1  UNL1        0.0617
     25 C          64.1031   86.3616   14.1084 C.ar    1  UNL1        0.0996
     26 CL         64.8472   86.0512   15.3733 Cl      1  UNL1       -0.0785
     27 C          62.8612   81.6755   11.9101 C.3     1  UNL1        0.0466
     28 C          62.4436   80.7450   13.0100 C.3     1  UNL1        0.0069
     29 C          63.1326   81.1385   10.5360 C.3     1  UNL1        0.0069
@<TRIPOS>BOND
     1    11    12    1
     2    12    13    2
     3    12    14   am
     4    14     9    1
     5     9    10    1
     6     9     7    1
     7     7     8    2
     8     8     1    1
     9     1     2   ar
    10     2     3   ar
    11     3     4   ar
    12     4    16    1
    13    16    17    1
    14    17    18   ar
    15    18    19   ar
    16    19    20   ar
    17    20    21   ar
    18    21    22   ar
    19    22    27    1
    20    27    28    1
    21    27    29    1
    22    22    23   ar
    23    23    24   ar
    24    24    25   ar
    25    25    26    1
    26     4     5   ar
    27     5     6   ar
    28     6     1   ar
    29    25    17   ar
    30    24    20   ar
    31    14    15    1
@<TRIPOS>MOLECULE
*****
 29 31 0 0 0
SMALL
GASTEIGER

@<TRIPOS>ATOM
      1 C          64.0040   85.2618   13.5835 C.ar    1  UNL1        0.0191
      2 C          64.4535   86.0377   14.7860 C.ar    1  UNL1        0.0063
      3 C          64.1741   87.5086   14.8768 C.ar    1  UNL1        0.0581
      4 C          63.4454   88.2038   13.7651 C.ar    1  UNL1        0.2297
      5 N          62.9960   87.4278   12.5626 N.ar    1  UNL1       -0.2098
      6 C          63.2753   85.9568   12.4718 C.ar    1  UNL1        0.1020
      7 C          63.1539   82.8238   13.2948 C.2     1  UNL1       -0.0069
      8 C          64.2833   83.7908   13.4927 C.2     1  UNL1       -0.0014
      9 C          63.4332   81.3528   13.2040 C.3     1  UNL1        0.0939
     10 C          64.3322   80.6967   14.2098 C.3     1  UNL1        0.0262
     11 C          62.6220   79.9316    9.5885 C.3     1  UNL1        0.0946
     12 C          63.2416   80.7464   10.6850 C.2     1  UNL1        0.2232
     13 O          64.2889   81.7695   10.3589 O.2     1  UNL1       -0.2751
     14 N          62.8137   80.5380   12.1076 N.am    1  UNL1       -0.3022
     15 H          62.1262   79.8665   12.3215 H       1  UNL1        0.1497
     16 O          63.1661   89.6747   13.8559 O.3     1  UNL1       -0.4352
     17 C          64.2148   90.6642   13.4421 C.ar    1  UNL1        0.1582
     18 C          65.3639   90.9662   14.3577 C.ar    1  UNL1        0.0400
     19 C          66.4126   91.9557   13.9439 C.ar    1  UNL1        0.0228
     20 C          66.3122   92.6430   12.6144 C.ar    1  UNL1        0.0885
     21 N          67.1881   93.6570   11.9402 N.ar    1  UNL1       -0.2427
     22 C          66.5803   93.9817   10.6078 C.ar    1  UNL1        0.0878
     23 S          65.3288   93.1683   10.4586 S.2     1  UNL1       -0.0698
     24 C          65.1632   92.3409   11.6988 C.ar    1  UNL1        0.0617
     25 C          64.1145   91.3515   12.1126 C.ar    1  UNL1        0.0996
     26 CL         62.9654   91.0494   11.1970 Cl      1  UNL1       -0.0785
     27 C          67.1278   94.9498    9.6013 C.3     1  UNL1        0.0466
     28 C          67.7726   94.4419    8.3458 C.3     1  UNL1        0.0069
     29 C          67.0305   96.4257    9.8503 C.3     1  UNL1        0.0069
@<TRIPOS>BOND
     1    11    12    1
     2    12    13    2
     3    12    14   am
     4    14     9    1
     5     9    10    1
     6     9     7    1
     7     7     8    2
     8     8     1    1
     9     1     2   ar
    10     2     3   ar
    11     3     4   ar
    12     4    16    1
    13    16    17    1
    14    17    18   ar
    15    18    19   ar
    16    19    20   ar
    17    20    21   ar
    18    21    22   ar
    19    22    27    1
    20    27    28    1
    21    27    29    1
    22    22    23   ar
    23    23    24   ar
    24    24    25   ar
    25    25    26    1
    26     4     5   ar
    27     5     6   ar
    28     6     1   ar
    29    25    17   ar
    30    24    20   ar
    31    14    15    1
@<TRIPOS>MOLECULE
*****
 29 31 0 0 0
SMALL
GASTEIGER

@<TRIPOS>ATOM
      1 C          64.8938   91.8805   12.6008 C.ar    1  UNL1        0.0191
      2 C          65.8586   91.7106   13.7368 C.ar    1  UNL1        0.0063
      3 C          65.4404   90.9681   14.9712 C.ar    1  UNL1        0.0581
      4 C          64.0575   90.3955   15.0697 C.ar    1  UNL1        0.2297
      5 N          63.0928   90.5654   13.9337 N.ar    1  UNL1       -0.2098
      6 C          63.5110   91.3079   12.6992 C.ar    1  UNL1        0.1020
      7 C          66.7635   92.7071   10.9974 C.2     1  UNL1       -0.0069
      8 C          65.3120   92.6230   11.3664 C.2     1  UNL1       -0.0014
      9 C          67.1817   93.4496    9.7630 C.3     1  UNL1        0.0939
     10 C          68.5104   93.1620    9.1288 C.3     1  UNL1        0.0262
     11 C          65.1355   96.8139    9.2686 C.3     1  UNL1        0.0946
     12 C          66.0459   95.7839    9.8688 C.2     1  UNL1        0.2232
     13 O          66.7307   96.0580   11.1749 O.2     1  UNL1       -0.2751
     14 N          66.2714   94.4797    9.1628 N.am    1  UNL1       -0.3022
     15 H          65.8219   94.2998    8.3056 H       1  UNL1        0.1497
     16 O          63.6393   89.6529   16.3041 O.3     1  UNL1       -0.4352
     17 C          63.3983   88.1736   16.2439 C.ar    1  UNL1        0.1582
     18 C          62.7624   87.4694   17.4055 C.ar    1  UNL1        0.0400
     19 C          62.5214   85.9901   17.3454 C.ar    1  UNL1        0.0228
     20 C          62.9164   85.2150   16.1234 C.ar    1  UNL1        0.0885
     21 N          62.8045   83.7595   15.7783 N.ar    1  UNL1       -0.2427
     22 C          63.3713   83.5643   14.4034 C.ar    1  UNL1        0.0878
     23 S          63.8335   84.8990   13.8986 S.2     1  UNL1       -0.0698
     24 C          63.5524   85.9193   14.9617 C.ar    1  UNL1        0.0617
     25 C          63.7933   87.3986   15.0219 C.ar    1  UNL1        0.0996
     26 CL         64.4293   88.1028   13.8602 Cl      1  UNL1       -0.0785
     27 C          63.4603   82.2627   13.6630 C.3     1  UNL1        0.0466
     28 C          64.3816   82.1304   12.4868 C.3     1  UNL1        0.0069
     29 C          62.6279   81.0935   14.0990 C.3     1  UNL1        0.0069
@<TRIPOS>BOND
     1    11    12    1
     2    12    13    2
     3    12    14   am
     4    14     9    1
     5     9    10    1
     6     9     7    1
     7     7     8    2
     8     8     1    1
     9     1     2   ar
    10     2     3   ar
    11     3     4   ar
    12     4    16    1
    13    16    17    1
    14    17    18   ar
    15    18    19   ar
    16    19    20   ar
    17    20    21   ar
    18    21    22   ar
    19    22    27    1
    20    27    28    1
    21    27    29    1
    22    22    23   ar
    23    23    24   ar
    24    24    25   ar
    25    25    26    1
    26     4     5   ar
    27     5     6   ar
    28     6     1   ar
    29    25    17   ar
    30    24    20   ar
    31    14    15    1
@<TRIPOS>MOLECULE
*****
 29 31 0 0 0
SMALL
GASTEIGER

@<TRIPOS>ATOM
      1 C          59.7794   92.1336    4.0655 C.ar    1  UNL1        0.0191
      2 C          60.8458   91.2252    4.6018 C.ar    1  UNL1        0.0063
      3 C          60.4914   90.1547    5.5909 C.ar    1  UNL1        0.0581
      4 C          59.0705   89.9924    6.0436 C.ar    1  UNL1        0.2297
      5 N          58.0041   90.9008    5.5073 N.ar    1  UNL1       -0.2098
      6 C          58.3586   91.9714    4.5182 C.ar    1  UNL1        0.1020
      7 C          61.3323   93.0390    2.1897 C.2     1  UNL1       -0.0069
      8 C          60.1338   93.2042    3.0765 C.2     1  UNL1       -0.0014
      9 C          61.6868   94.1096    1.2007 C.3     1  UNL1        0.0939
     10 C          61.1227   94.0637   -0.1885 C.3     1  UNL1        0.0262
     11 C          65.0075   96.1224    2.0199 C.3     1  UNL1        0.0946
     12 C          64.0890   95.0060    1.6198 C.2     1  UNL1        0.2232
     13 O          64.6542   93.6699    1.2387 O.2     1  UNL1       -0.2751
     14 N          62.6053   95.2259    1.6008 N.am    1  UNL1       -0.3022
     15 H          62.2343   96.1029    1.8509 H       1  UNL1        0.1497
     16 O          58.7161   88.9218    7.0327 O.3     1  UNL1       -0.4352
     17 C          59.6288   88.6365    8.1883 C.ar    1  UNL1        0.1582
     18 C          60.1311   89.7621    9.0430 C.ar    1  UNL1        0.0400
     19 C          61.0439   89.4768   10.1987 C.ar    1  UNL1        0.0228
     20 C          61.4543   88.0657   10.4996 C.ar    1  UNL1        0.0885
     21 N          62.3361   87.4821   11.5635 N.ar    1  UNL1       -0.2427
     22 C          62.3787   85.9958   11.3662 C.ar    1  UNL1        0.0878
     23 S          61.5233   85.6608   10.1805 S.2     1  UNL1       -0.0698
     24 C          60.9520   86.9401    9.6448 C.ar    1  UNL1        0.0617
     25 C          60.0392   87.2255    8.4892 C.ar    1  UNL1        0.0996
     26 CL         59.5369   86.0998    7.6345 Cl      1  UNL1       -0.0785
     27 C          63.1426   85.0163   12.2072 C.3     1  UNL1        0.0466
     28 C          63.6629   85.4284   13.5523 C.3     1  UNL1        0.0069
     29 C          63.3863   83.6248   11.7029 C.3     1  UNL1        0.0069
@<TRIPOS>BOND
     1    11    12    1
     2    12    13    2
     3    12    14   am
     4    14     9    1
     5     9    10    1
     6     9     7    1
     7     7     8    2
     8     8     1    1
     9     1     2   ar
    10     2     3   ar
    11     3     4   ar
    12     4    16    1
    13    16    17    1
    14    17    18   ar
    15    18    19   ar
    16    19    20   ar
    17    20    21   ar
    18    21    22   ar
    19    22    27    1
    20    27    28    1
    21    27    29    1
    22    22    23   ar
    23    23    24   ar
    24    24    25   ar
    25    25    26    1
    26     4     5   ar
    27     5     6   ar
    28     6     1   ar
    29    25    17   ar
    30    24    20   ar
    31    14    15    1
@<TRIPOS>MOLECULE
*****
 29 31 0 0 0
SMALL
GASTEIGER

@<TRIPOS>ATOM
      1 C          63.6420   91.0844   11.7128 C.ar    1  UNL1        0.0191
      2 C          63.5152   89.7477   12.3816 C.ar    1  UNL1        0.0063
      3 C          62.8931   88.5975   11.6468 C.ar    1  UNL1        0.0581
      4 C          62.3977   88.7839   10.2432 C.ar    1  UNL1        0.2297
      5 N          62.5245   90.1206    9.5745 N.ar    1  UNL1       -0.2098
      6 C          63.1466   91.2709   10.3094 C.ar    1  UNL1        0.1020
      7 C          65.5535   92.8264   11.9607 C.2     1  UNL1       -0.0069
      8 C          64.2641   92.2346   12.4476 C.2     1  UNL1       -0.0014
      9 C          66.1756   93.9766   12.6955 C.3     1  UNL1        0.0939
     10 C          66.4743   95.2558   11.9712 C.3     1  UNL1        0.0262
     11 C          67.9330   92.8134   16.0583 C.3     1  UNL1        0.0946
     12 C          67.6095   92.9424   14.5993 C.2     1  UNL1        0.2232
     13 O          68.3963   92.1662   13.5852 O.2     1  UNL1       -0.2751
     14 N          66.4991   93.8476   14.1545 N.am    1  UNL1       -0.3022
     15 H          65.9827   94.3570   14.8202 H       1  UNL1        0.1497
     16 O          61.7756   87.6337    9.5084 O.3     1  UNL1       -0.4352
     17 C          62.2813   86.2393    9.7321 C.ar    1  UNL1        0.1582
     18 C          63.0427   85.5348    8.6487 C.ar    1  UNL1        0.0400
     19 C          63.5484   84.1404    8.8723 C.ar    1  UNL1        0.0228
     20 C          63.2926   83.4505   10.1795 C.ar    1  UNL1        0.0885
     21 N          63.6651   82.0884   10.6853 N.ar    1  UNL1       -0.2427
     22 C          63.1339   81.9511   12.0813 C.ar    1  UNL1        0.0878
     23 S          62.4330   83.2284   12.4383 S.2     1  UNL1       -0.0698
     24 C          62.5311   84.1551   11.2629 C.ar    1  UNL1        0.0617
     25 C          62.0255   85.5494   11.0392 C.ar    1  UNL1        0.0996
     26 CL         61.2640   86.2540   12.1227 Cl      1  UNL1       -0.0785
     27 C          63.2781   80.7478   12.9652 C.3     1  UNL1        0.0466
     28 C          62.4203   79.5394   12.7329 C.3     1  UNL1        0.0069
     29 C          64.2801   80.7528   14.0813 C.3     1  UNL1        0.0069
@<TRIPOS>BOND
     1    11    12    1
     2    12    13    2
     3    12    14   am
     4    14     9    1
     5     9    10    1
     6     9     7    1
     7     7     8    2
     8     8     1    1
     9     1     2   ar
    10     2     3   ar
    11     3     4   ar
    12     4    16    1
    13    16    17    1
    14    17    18   ar
    15    18    19   ar
    16    19    20   ar
    17    20    21   ar
    18    21    22   ar
    19    22    27    1
    20    27    28    1
    21    27    29    1
    22    22    23   ar
    23    23    24   ar
    24    24    25   ar
    25    25    26    1
    26     4     5   ar
    27     5     6   ar
    28     6     1   ar
    29    25    17   ar
    30    24    20   ar
    31    14    15    1
@<TRIPOS>MOLECULE
*****
 29 31 0 0 0
SMALL
GASTEIGER

@<TRIPOS>ATOM
      1 C          63.5884   91.0966   11.5964 C.ar    1  UNL1        0.0191
      2 C          63.4560   89.7811   12.3049 C.ar    1  UNL1        0.0063
      3 C          62.8425   88.6079   11.5997 C.ar    1  UNL1        0.0581
      4 C          62.3615   88.7502   10.1860 C.ar    1  UNL1        0.2297
      5 N          62.4939   90.0657    9.4776 N.ar    1  UNL1       -0.2098
      6 C          63.1074   91.2389   10.1828 C.ar    1  UNL1        0.1020
      7 C          65.5932   92.7097   11.9545 C.2     1  UNL1       -0.0069
      8 C          64.2019   92.2697   12.3016 C.2     1  UNL1       -0.0014
      9 C          66.2067   93.8829   12.6597 C.3     1  UNL1        0.0939
     10 C          66.8720   93.6937   13.9908 C.3     1  UNL1        0.0262
     11 C          66.7838   96.8557   10.0947 C.3     1  UNL1        0.0946
     12 C          66.8356   95.4934   10.7205 C.2     1  UNL1        0.2232
     13 O          67.5681   94.3796   10.0329 O.2     1  UNL1       -0.2751
     14 N          66.1549   95.2451   12.0339 N.am    1  UNL1       -0.3022
     15 H          65.6741   95.9762   12.4852 H       1  UNL1        0.1497
     16 O          61.7480   87.5770    9.4808 O.3     1  UNL1       -0.4352
     17 C          62.2653   86.1927    9.7384 C.ar    1  UNL1        0.1582
     18 C          63.0413   85.4723    8.6761 C.ar    1  UNL1        0.0400
     19 C          63.5586   84.0880    8.9337 C.ar    1  UNL1        0.0228
     20 C          63.2998   83.4243   10.2538 C.ar    1  UNL1        0.0885
     21 N          63.6816   82.0772   10.7917 N.ar    1  UNL1       -0.2427
     22 C          63.1415   81.9652   12.1866 C.ar    1  UNL1        0.0878
     23 S          62.4260   83.2430   12.5107 S.2     1  UNL1       -0.0698
     24 C          62.5238   84.1449   11.3161 C.ar    1  UNL1        0.0617
     25 C          62.0066   85.5291   11.0585 C.ar    1  UNL1        0.0996
     26 CL         61.2305   86.2496   12.1208 Cl      1  UNL1       -0.0785
     27 C          63.2908   80.7828   13.0976 C.3     1  UNL1        0.0466
     28 C          64.3358   80.7922   14.1736 C.3     1  UNL1        0.0069
     29 C          62.3950   79.5910   12.9324 C.3     1  UNL1        0.0069
@<TRIPOS>BOND
     1    11    12    1
     2    12    13    2
     3    12    14   am
     4    14     9    1
     5     9    10    1
     6     9     7    1
     7     7     8    2
     8     8     1    1
     9     1     2   ar
    10     2     3   ar
    11     3     4   ar
    12     4    16    1
    13    16    17    1
    14    17    18   ar
    15    18    19   ar
    16    19    20   ar
    17    20    21   ar
    18    21    22   ar
    19    22    27    1
    20    27    28    1
    21    27    29    1
    22    22    23   ar
    23    23    24   ar
    24    24    25   ar
    25    25    26    1
    26     4     5   ar
    27     5     6   ar
    28     6     1   ar
    29    25    17   ar
    30    24    20   ar
    31    14    15    1
