@<TRIPOS>MOLECULE
*****
 55 61 0 0 0
SMALL
GASTEIGER

@<TRIPOS>ATOM
      1 N          63.7553   86.0610   16.0374 N.3     1  UNL1       -0.1862
      2 C          63.8769   84.5816   16.2533 C.3     1  UNL1        0.1775
      3 C          63.7685   83.6423   15.0889 C.2     1  UNL1        0.2452
      4 O          63.8901   82.1629   15.3049 O.2     1  UNL1       -0.2732
      5 N          63.5384   84.1824   13.7086 N.am    1  UNL1       -0.2541
      6 C          63.4300   83.2430   12.5441 C.3     1  UNL1        0.1577
      7 C          63.2000   83.7831   11.1638 C.2     1  UNL1        0.2445
      8 O          63.0916   82.8437    9.9993 O.2     1  UNL1       -0.2731
      9 N          63.0784   85.2625   10.9478 N.am    1  UNL1       -0.2705
     10 C          63.1868   86.2018   12.1123 C.3     1  UNL1        0.1359
     11 C          63.4168   85.6617   13.4927 C.3     1  UNL1        0.1908
     12 N          63.5252   86.6010   14.6571 N.am    1  UNL1       -0.1863
     13 C          63.4036   88.0805   14.4411 C.2     1  UNL1        0.3191
     14 O          63.1736   88.6205   13.0608 O.2     1  UNL1       -0.2512
     15 N          63.5120   89.0198   15.6056 N.am    1  UNL1       -0.2836
     16 H          63.6630   88.6653   16.5116 H       1  UNL1        0.1513
     17 C          63.8637   87.0003   17.2019 C.3     1  UNL1        0.1188
     18 C          62.6894   87.0290   19.5192 C.2     1  UNL1       -0.0034
     19 C          62.6572   87.2943   18.0432 C.2     1  UNL1       -0.0071
     20 C          63.5517   81.7637   12.7600 C.3     1  UNL1        0.0556
     21 C          62.3593   80.9703   13.2060 C.ar    1  UNL1       -0.0198
     22 C          61.1334   81.6755   13.7057 C.ar    1  UNL1       -0.0011
     23 C          59.9411   80.8821   14.1517 C.ar    1  UNL1        0.0363
     24 C          59.9747   79.3835   14.0981 C.ar    1  UNL1        0.1337
     25 O          58.7824   78.5901   14.5441 O.3     1  UNL1       -0.5055
     26 C          61.2007   78.6782   13.5984 C.ar    1  UNL1        0.0363
     27 C          62.3930   79.4716   13.1524 C.ar    1  UNL1       -0.0011
     28 H          58.0166   79.0306   14.8562 H       1  UNL1        0.2922
     29 C          62.8483   85.8025    9.5675 C.3     1  UNL1        0.1217
     30 C          62.1198   87.1006    9.3817 C.ar    1  UNL1        0.0135
     31 C          62.4628   88.2825   10.2393 C.ar    1  UNL1       -0.0012
     32 C          61.7344   89.5805   10.0536 C.ar    1  UNL1       -0.0002
     33 C          60.6630   89.6966    9.0102 C.ar    1  UNL1        0.0016
     34 C          60.3201   88.5147    8.1526 C.ar    1  UNL1        0.0214
     35 C          59.3184   88.3306    7.0513 C.ar    1  UNL1        0.0721
     36 C          59.4277   86.9188    6.5565 C.ar    1  UNL1        0.0805
     37 N          60.4970   86.2304    7.3519 N.ar    1  UNL1       -0.3241
     38 C          60.9374   84.8058    7.1894 C.3     1  UNL1        0.1305
     39 C          61.0485   87.2167    8.3383 C.ar    1  UNL1        0.0577
     40 C          58.3732   89.3750    6.5355 C.2     1  UNL1        0.2506
     41 O          56.9301   89.3478    6.9436 O.2     1  UNL1       -0.2699
     42 N          58.8712   90.4466    5.6115 N.am    1  UNL1       -0.2732
     43 C          57.9262   91.4909    5.0957 C.3     1  UNL1        0.1110
     44 C          58.4242   92.5625    4.1717 C.3     1  UNL1        0.0939
     45 N          59.8674   92.5897    3.7636 N.3     1  UNL1       -0.2686
     46 C          60.3654   93.6613    2.8397 C.3     1  UNL1        0.0897
     47 C          60.8125   91.5453    4.2795 C.3     1  UNL1        0.0939
     48 C          60.3145   90.4737    5.2034 C.3     1  UNL1        0.1110
     49 C          63.3904   90.4991   15.3897 C.3     1  UNL1        0.1177
     50 C          64.6076   91.3117   15.0610 C.ar    1  UNL1       -0.0025
     51 C          65.3257   92.0592   16.1453 C.ar    1  UNL1       -0.0026
     52 C          66.5429   92.8718   15.8166 C.ar    1  UNL1       -0.0003
     53 C          67.0421   92.9369   14.4036 C.ar    1  UNL1       -0.0000
     54 C          66.3241   92.1894   13.3193 C.ar    1  UNL1       -0.0003
     55 C          65.1069   91.3768   13.6480 C.ar    1  UNL1       -0.0026
@<TRIPOS>BOND
     1    18    19    2
     2    19    17    1
     3    17     1    1
     4     1     2    1
     5     2     3    1
     6     3     4    2
     7     3     5   am
     8     5     6    1
     9     6    20    1
    10    20    21    1
    11    21    22   ar
    12    22    23   ar
    13    23    24   ar
    14    24    25    1
    15    24    26   ar
    16    26    27   ar
    17     6     7    1
    18     7     8    2
    19     7     9   am
    20     9    29    1
    21    29    30    1
    22    30    31   ar
    23    31    32   ar
    24    32    33   ar
    25    33    34   ar
    26    34    35   ar
    27    35    40    1
    28    40    41    2
    29    40    42   am
    30    42    43    1
    31    43    44    1
    32    44    45    1
    33    45    46    1
    34    45    47    1
    35    47    48    1
    36    35    36   ar
    37    36    37   ar
    38    37    38    1
    39    37    39   ar
    40     9    10    1
    41    11    10    1
    42    11    12    1
    43    12    13   am
    44    13    14    2
    45    13    15   am
    46    15    49    1
    47    49    50    1
    48    50    51   ar
    49    51    52   ar
    50    52    53   ar
    51    53    54   ar
    52    54    55   ar
    53    12     1    1
    54    55    50   ar
    55    11     5    1
    56    27    21   ar
    57    39    30   ar
    58    39    34   ar
    59    48    42    1
    60    25    28    1
    61    15    16    1
@<TRIPOS>MOLECULE
*****
 55 61 0 0 0
SMALL
GASTEIGER

@<TRIPOS>ATOM
      1 N          65.3460   89.3329   14.6829 N.3     1  UNL1       -0.1862
      2 C          65.5284   88.0841   15.4935 C.3     1  UNL1        0.1775
      3 C          64.8011   86.8290   15.1114 C.2     1  UNL1        0.2452
      4 O          64.9835   85.5801   15.9220 O.2     1  UNL1       -0.2732
      5 N          63.8915   86.8229   13.9187 N.am    1  UNL1       -0.2541
      6 C          63.1642   85.5678   13.5366 C.3     1  UNL1        0.1577
      7 C          62.2546   85.5617   12.3439 C.2     1  UNL1        0.2445
      8 O          61.5274   84.3067   11.9618 O.2     1  UNL1       -0.2731
      9 N          62.0722   86.8106   11.5333 N.am    1  UNL1       -0.2705
     10 C          62.7995   88.0656   11.9154 C.3     1  UNL1        0.1359
     11 C          63.7091   88.0717   13.1081 C.3     1  UNL1        0.1908
     12 N          64.4364   89.3268   13.4903 N.am    1  UNL1       -0.1863
     13 C          64.2540   90.5757   12.6796 C.2     1  UNL1        0.3191
     14 O          63.3444   90.5695   11.4870 O.2     1  UNL1       -0.2512
     15 N          64.9812   91.8307   13.0618 N.am    1  UNL1       -0.2836
     16 H          65.5782   91.8347   13.8446 H       1  UNL1        0.1513
     17 C          66.0732   90.5879   15.0651 C.3     1  UNL1        0.1188
     18 C          68.0806   92.2019   14.7248 C.2     1  UNL1       -0.0034
     19 C          67.4361   90.8656   14.5035 C.2     1  UNL1       -0.0071
     20 C          63.3466   84.3190   14.3471 C.3     1  UNL1        0.0556
     21 C          63.1499   82.9756   13.7095 C.ar    1  UNL1       -0.0198
     22 C          62.1056   82.0389   14.2406 C.ar    1  UNL1       -0.0011
     23 C          61.9089   80.6956   13.6030 C.ar    1  UNL1        0.0363
     24 C          62.7565   80.2888   12.4342 C.ar    1  UNL1        0.1337
     25 O          62.5598   78.9454   11.7965 O.3     1  UNL1       -0.5055
     26 C          63.8008   81.2255   11.9029 C.ar    1  UNL1        0.0363
     27 C          63.9975   82.5689   12.5406 C.ar    1  UNL1       -0.0011
     28 H          61.9074   78.3603   12.1283 H       1  UNL1        0.2922
     29 C          61.1626   86.8044   10.3406 C.3     1  UNL1        0.1217
     30 C          60.5619   88.0880    9.8489 C.ar    1  UNL1        0.0135
     31 C          60.3747   89.2385   10.7929 C.ar    1  UNL1       -0.0012
     32 C          59.7739   90.5220   10.3012 C.ar    1  UNL1       -0.0002
     33 C          59.3604   90.6549    8.8655 C.ar    1  UNL1        0.0016
     34 C          59.5476   89.5044    7.9215 C.ar    1  UNL1        0.0214
     35 C          59.2377   89.3422    6.4628 C.ar    1  UNL1        0.0721
     36 C          59.6469   87.9585    6.0530 C.ar    1  UNL1        0.0805
     37 N          60.2097   87.2656    7.2584 N.ar    1  UNL1       -0.3241
     38 C          60.7406   85.8633    7.3014 C.3     1  UNL1        0.1305
     39 C          60.1483   88.2209    8.4132 C.ar    1  UNL1        0.0577
     40 C          58.6260   90.3814    5.5706 C.2     1  UNL1        0.2506
     41 O          57.1474   90.6301    5.6131 O.2     1  UNL1       -0.2699
     42 N          59.4929   91.1718    4.6359 N.am    1  UNL1       -0.2732
     43 C          58.8813   92.2110    3.7437 C.3     1  UNL1        0.1110
     44 C          59.7482   93.0014    2.8090 C.3     1  UNL1        0.0939
     45 N          61.2268   92.7526    2.7664 N.3     1  UNL1       -0.2686
     46 C          62.0937   93.5430    1.8317 C.3     1  UNL1        0.0897
     47 C          61.8385   91.7134    3.6587 C.3     1  UNL1        0.0939
     48 C          60.9716   90.9230    4.5934 C.3     1  UNL1        0.1110
     49 C          64.7989   93.0796   12.2512 C.3     1  UNL1        0.1177
     50 C          65.8388   93.4807   11.2474 C.ar    1  UNL1       -0.0025
     51 C          65.9236   94.9047   10.7837 C.ar    1  UNL1       -0.0026
     52 C          66.9635   95.3058    9.7799 C.ar    1  UNL1       -0.0003
     53 C          67.9186   94.2830    9.2397 C.ar    1  UNL1       -0.0000
     54 C          67.8337   92.8590    9.7034 C.ar    1  UNL1       -0.0003
     55 C          66.7938   92.4578   10.7073 C.ar    1  UNL1       -0.0026
@<TRIPOS>BOND
     1    18    19    2
     2    19    17    1
     3    17     1    1
     4     1     2    1
     5     2     3    1
     6     3     4    2
     7     3     5   am
     8     5     6    1
     9     6    20    1
    10    20    21    1
    11    21    22   ar
    12    22    23   ar
    13    23    24   ar
    14    24    25    1
    15    24    26   ar
    16    26    27   ar
    17     6     7    1
    18     7     8    2
    19     7     9   am
    20     9    29    1
    21    29    30    1
    22    30    31   ar
    23    31    32   ar
    24    32    33   ar
    25    33    34   ar
    26    34    35   ar
    27    35    40    1
    28    40    41    2
    29    40    42   am
    30    42    43    1
    31    43    44    1
    32    44    45    1
    33    45    46    1
    34    45    47    1
    35    47    48    1
    36    35    36   ar
    37    36    37   ar
    38    37    38    1
    39    37    39   ar
    40     9    10    1
    41    11    10    1
    42    11    12    1
    43    12    13   am
    44    13    14    2
    45    13    15   am
    46    15    49    1
    47    49    50    1
    48    50    51   ar
    49    51    52   ar
    50    52    53   ar
    51    53    54   ar
    52    54    55   ar
    53    12     1    1
    54    55    50   ar
    55    11     5    1
    56    27    21   ar
    57    39    30   ar
    58    39    34   ar
    59    48    42    1
    60    25    28    1
    61    15    16    1
@<TRIPOS>MOLECULE
*****
 55 61 0 0 0
SMALL
GASTEIGER

@<TRIPOS>ATOM
      1 N          63.0509   83.8038    9.6370 N.3     1  UNL1       -0.1862
      2 C          62.4415   83.8561    8.2674 C.3     1  UNL1        0.1775
      3 C          61.6742   85.0699    7.8339 C.2     1  UNL1        0.2452
      4 O          61.0647   85.1222    6.4642 O.2     1  UNL1       -0.2732
      5 N          61.5162   86.2312    8.7699 N.am    1  UNL1       -0.2541
      6 C          60.7488   87.4450    8.3364 C.3     1  UNL1        0.1577
      7 C          60.5908   88.6063    9.2724 C.2     1  UNL1        0.2445
      8 O          59.8234   89.8201    8.8389 O.2     1  UNL1       -0.2731
      9 N          61.2002   88.5540   10.6421 N.am    1  UNL1       -0.2705
     10 C          61.9676   87.3403   11.0757 C.3     1  UNL1        0.1359
     11 C          62.1256   86.1789   10.1395 C.3     1  UNL1        0.1908
     12 N          62.8929   84.9651   10.5731 N.am    1  UNL1       -0.1863
     13 C          63.5024   84.9128   11.9428 C.2     1  UNL1        0.3191
     14 O          63.3444   86.0741   12.8788 O.2     1  UNL1       -0.2512
     15 N          64.2697   83.6990   12.3763 N.am    1  UNL1       -0.2836
     16 H          64.3734   82.9368   11.7619 H       1  UNL1        0.1513
     17 C          63.8183   82.5900   10.0706 C.3     1  UNL1        0.1188
     18 C          62.7515   80.9440   11.7742 C.2     1  UNL1       -0.0034
     19 C          63.0942   81.3087   10.3602 C.2     1  UNL1       -0.0071
     20 C          60.1394   87.4973    6.9668 C.3     1  UNL1        0.0556
     21 C          59.6717   88.8066    6.4035 C.ar    1  UNL1       -0.0198
     22 C          58.2241   89.1884    6.4958 C.ar    1  UNL1       -0.0011
     23 C          57.7564   90.4976    5.9325 C.ar    1  UNL1        0.0363
     24 C          58.7364   91.4250    5.2770 C.ar    1  UNL1        0.1337
     25 O          58.2687   92.7342    4.7138 O.3     1  UNL1       -0.5055
     26 C          60.1841   91.0431    5.1848 C.ar    1  UNL1        0.0363
     27 C          60.6518   89.7339    5.7480 C.ar    1  UNL1       -0.0011
     28 H          57.3644   92.9727    4.7714 H       1  UNL1        0.2922
     29 C          61.0422   89.7154   11.5782 C.3     1  UNL1        0.1217
     30 C          62.2392   90.5285   11.9732 C.ar    1  UNL1        0.0135
     31 C          63.0138   91.2785   10.9303 C.ar    1  UNL1       -0.0012
     32 C          64.2108   92.0916   11.3253 C.ar    1  UNL1       -0.0002
     33 C          64.6332   92.1548   12.7632 C.ar    1  UNL1        0.0016
     34 C          63.8586   91.4048   13.8061 C.ar    1  UNL1        0.0214
     35 C          64.0352   91.2789   15.2903 C.ar    1  UNL1        0.0721
     36 C          62.9473   90.3880   15.8126 C.ar    1  UNL1        0.0805
     37 N          62.0985   89.9633   14.6512 N.ar    1  UNL1       -0.3241
     38 C          60.8972   89.0674   14.7181 C.3     1  UNL1        0.1305
     39 C          62.6617   90.5917   13.4111 C.ar    1  UNL1        0.0577
     40 C          65.1108   91.9298   16.1086 C.2     1  UNL1        0.2506
     41 O          64.8011   92.4402   17.4847 O.2     1  UNL1       -0.2699
     42 N          66.4961   92.0702   15.5508 N.am    1  UNL1       -0.2732
     43 C          67.5717   92.7210   16.3690 C.3     1  UNL1        0.1110
     44 C          68.9571   92.8614   15.8112 C.3     1  UNL1        0.0939
     45 N          69.2668   92.3510   14.4351 N.3     1  UNL1       -0.2686
     46 C          70.6521   92.4915   13.8773 C.3     1  UNL1        0.0897
     47 C          68.1911   91.7002   13.6169 C.3     1  UNL1        0.0939
     48 C          66.8058   91.5598   14.1747 C.3     1  UNL1        0.1110
     49 C          64.8791   83.6467   13.7459 C.3     1  UNL1        0.1177
     50 C          64.2624   84.4232   14.8714 C.ar    1  UNL1       -0.0025
     51 C          64.8693   85.7243   15.3058 C.ar    1  UNL1       -0.0026
     52 C          64.2526   86.5009   16.4312 C.ar    1  UNL1       -0.0003
     53 C          63.0291   85.9762   17.1224 C.ar    1  UNL1       -0.0000
     54 C          62.4222   84.6750   16.6881 C.ar    1  UNL1       -0.0003
     55 C          63.0389   83.8985   15.5626 C.ar    1  UNL1       -0.0026
@<TRIPOS>BOND
     1    18    19    2
     2    19    17    1
     3    17     1    1
     4     1     2    1
     5     2     3    1
     6     3     4    2
     7     3     5   am
     8     5     6    1
     9     6    20    1
    10    20    21    1
    11    21    22   ar
    12    22    23   ar
    13    23    24   ar
    14    24    25    1
    15    24    26   ar
    16    26    27   ar
    17     6     7    1
    18     7     8    2
    19     7     9   am
    20     9    29    1
    21    29    30    1
    22    30    31   ar
    23    31    32   ar
    24    32    33   ar
    25    33    34   ar
    26    34    35   ar
    27    35    40    1
    28    40    41    2
    29    40    42   am
    30    42    43    1
    31    43    44    1
    32    44    45    1
    33    45    46    1
    34    45    47    1
    35    47    48    1
    36    35    36   ar
    37    36    37   ar
    38    37    38    1
    39    37    39   ar
    40     9    10    1
    41    11    10    1
    42    11    12    1
    43    12    13   am
    44    13    14    2
    45    13    15   am
    46    15    49    1
    47    49    50    1
    48    50    51   ar
    49    51    52   ar
    50    52    53   ar
    51    53    54   ar
    52    54    55   ar
    53    12     1    1
    54    55    50   ar
    55    11     5    1
    56    27    21   ar
    57    39    30   ar
    58    39    34   ar
    59    48    42    1
    60    25    28    1
    61    15    16    1
@<TRIPOS>MOLECULE
*****
 55 61 0 0 0
SMALL
GASTEIGER

@<TRIPOS>ATOM
      1 N          63.0322   83.9347    9.6081 N.3     1  UNL1       -0.1862
      2 C          62.3944   83.9889    8.2515 C.3     1  UNL1        0.1775
      3 C          61.5675   85.1771    7.8585 C.2     1  UNL1        0.2452
      4 O          60.9297   85.2312    6.5018 O.2     1  UNL1       -0.2732
      5 N          61.3785   86.3111    8.8219 N.am    1  UNL1       -0.2541
      6 C          60.5516   87.4992    8.4288 C.3     1  UNL1        0.1577
      7 C          60.3625   88.6332    9.3923 C.2     1  UNL1        0.2445
      8 O          59.5356   89.8214    8.9992 O.2     1  UNL1       -0.2731
      9 N          61.0003   88.5791   10.7489 N.am    1  UNL1       -0.2705
     10 C          61.8272   87.3909   11.1420 C.3     1  UNL1        0.1359
     11 C          62.0163   86.2569   10.1784 C.3     1  UNL1        0.1908
     12 N          62.8432   85.0687   10.5715 N.am    1  UNL1       -0.1863
     13 C          63.4810   85.0146   11.9281 C.2     1  UNL1        0.3191
     14 O          63.2919   86.1486   12.8916 O.2     1  UNL1       -0.2512
     15 N          64.3079   83.8264   12.3212 N.am    1  UNL1       -0.2836
     16 H          64.4320   83.0821   11.6888 H       1  UNL1        0.1513
     17 C          63.8591   82.7466   10.0011 C.3     1  UNL1        0.1188
     18 C          62.7569   81.1183   11.6993 C.2     1  UNL1       -0.0034
     19 C          63.1941   81.4357   10.3000 C.2     1  UNL1       -0.0071
     20 C          59.9138   87.5534    7.0723 C.3     1  UNL1        0.0556
     21 C          59.5903   88.8784    6.4480 C.ar    1  UNL1       -0.0198
     22 C          58.1720   89.3657    6.4150 C.ar    1  UNL1       -0.0011
     23 C          57.8485   90.6907    5.7907 C.ar    1  UNL1        0.0363
     24 C          58.9433   91.5284    5.1994 C.ar    1  UNL1        0.1337
     25 O          58.6198   92.8534    4.5751 O.3     1  UNL1       -0.5055
     26 C          60.3616   91.0411    5.2323 C.ar    1  UNL1        0.0363
     27 C          60.6851   89.7161    5.8566 C.ar    1  UNL1       -0.0011
     28 H          57.7338   93.1577    4.5545 H       1  UNL1        0.2922
     29 C          60.8112   89.7130   11.7123 C.3     1  UNL1        0.1217
     30 C          61.9757   90.2227   12.5087 C.ar    1  UNL1        0.0135
     31 C          62.0579   89.9431   13.9801 C.ar    1  UNL1       -0.0012
     32 C          63.2224   90.4527   14.7765 C.ar    1  UNL1       -0.0002
     33 C          64.3046   91.2419   14.1015 C.ar    1  UNL1        0.0016
     34 C          64.2225   91.5216   12.6301 C.ar    1  UNL1        0.0214
     35 C          65.1315   92.2660   11.6976 C.ar    1  UNL1        0.0721
     36 C          64.5288   92.2164   10.3249 C.ar    1  UNL1        0.0805
     37 N          63.2474   91.4414   10.4090 N.ar    1  UNL1       -0.3241
     38 C          62.3183   91.1474    9.2687 C.3     1  UNL1        0.1305
     39 C          63.0580   91.0120   11.8337 C.ar    1  UNL1        0.0577
     40 C          66.4175   92.9414   12.0721 C.2     1  UNL1        0.2506
     41 O          67.0214   93.9647   11.1567 O.2     1  UNL1       -0.2699
     42 N          67.0994   92.5935   13.3620 N.am    1  UNL1       -0.2732
     43 C          68.3853   93.2688   13.7366 C.3     1  UNL1        0.1110
     44 C          69.0672   92.9209   15.0265 C.3     1  UNL1        0.0939
     45 N          68.4633   91.8976   15.9419 N.3     1  UNL1       -0.2686
     46 C          69.1452   91.5497   17.2319 C.3     1  UNL1        0.0897
     47 C          67.1773   91.2222   15.5674 C.3     1  UNL1        0.0939
     48 C          66.4953   91.5701   14.2774 C.3     1  UNL1        0.1110
     49 C          64.9457   83.7722   13.6777 C.3     1  UNL1        0.1177
     50 C          64.3160   84.4943   14.8319 C.ar    1  UNL1       -0.0025
     51 C          63.1684   83.8716   15.5701 C.ar    1  UNL1       -0.0026
     52 C          62.5387   84.5937   16.7243 C.ar    1  UNL1       -0.0003
     53 C          63.0568   85.9385   17.1403 C.ar    1  UNL1       -0.0000
     54 C          64.2045   86.5612   16.4021 C.ar    1  UNL1       -0.0003
     55 C          64.8342   85.8392   15.2479 C.ar    1  UNL1       -0.0026
@<TRIPOS>BOND
     1    18    19    2
     2    19    17    1
     3    17     1    1
     4     1     2    1
     5     2     3    1
     6     3     4    2
     7     3     5   am
     8     5     6    1
     9     6    20    1
    10    20    21    1
    11    21    22   ar
    12    22    23   ar
    13    23    24   ar
    14    24    25    1
    15    24    26   ar
    16    26    27   ar
    17     6     7    1
    18     7     8    2
    19     7     9   am
    20     9    29    1
    21    29    30    1
    22    30    31   ar
    23    31    32   ar
    24    32    33   ar
    25    33    34   ar
    26    34    35   ar
    27    35    40    1
    28    40    41    2
    29    40    42   am
    30    42    43    1
    31    43    44    1
    32    44    45    1
    33    45    46    1
    34    45    47    1
    35    47    48    1
    36    35    36   ar
    37    36    37   ar
    38    37    38    1
    39    37    39   ar
    40     9    10    1
    41    11    10    1
    42    11    12    1
    43    12    13   am
    44    13    14    2
    45    13    15   am
    46    15    49    1
    47    49    50    1
    48    50    51   ar
    49    51    52   ar
    50    52    53   ar
    51    53    54   ar
    52    54    55   ar
    53    12     1    1
    54    55    50   ar
    55    11     5    1
    56    27    21   ar
    57    39    30   ar
    58    39    34   ar
    59    48    42    1
    60    25    28    1
    61    15    16    1
