@<TRIPOS>MOLECULE
*****
 35 39 0 0 0
SMALL
GASTEIGER

@<TRIPOS>ATOM
      1 O          62.4986   89.5862   11.3339 O.2     1  UNL1       -0.2526
      2 C          63.6206   90.1317   12.1666 C.2     1  UNL1        0.3044
      3 N          64.3103   91.4481   11.9631 N.am    1  UNL1       -0.2833
      4 C          65.3659   91.5865   13.0197 C.3     1  UNL1        0.1144
      5 C          65.3286   90.3557   13.8762 C.3     1  UNL1        0.1212
      6 N          64.2500   89.4566   13.3490 N.am    1  UNL1       -0.2634
      7 H          64.1060   92.1057   11.2595 H       1  UNL1        0.1515
      8 C          66.4780   92.0005   13.9374 C.ar    1  UNL1       -0.0007
      9 C          67.9000   91.9504   13.4627 C.ar    1  UNL1       -0.0001
     10 C          69.0119   92.3643   14.3803 C.ar    1  UNL1        0.0294
     11 C          68.7019   92.8283   15.7727 C.ar    1  UNL1        0.1401
     12 F          69.8140   93.2422   16.6904 F       1  UNL1       -0.2042
     13 C          67.2799   92.8783   16.2474 C.ar    1  UNL1        0.0294
     14 C          66.1680   92.4644   15.3297 C.ar    1  UNL1       -0.0001
     15 C          65.6357   92.9039   12.3550 C.ar    1  UNL1       -0.0007
     16 C          65.4344   93.0528   10.8761 C.ar    1  UNL1       -0.0001
     17 C          65.7042   94.3702   10.2113 C.ar    1  UNL1        0.0294
     18 C          66.1752   95.5386   11.0256 C.ar    1  UNL1        0.1401
     19 F          66.4449   96.8559   10.3608 F       1  UNL1       -0.2042
     20 C          66.3764   95.3897   12.5045 C.ar    1  UNL1        0.0294
     21 C          66.1067   94.0723   13.1693 C.ar    1  UNL1       -0.0001
     22 C          63.8678   88.1174   13.9063 C.3     1  UNL1        0.0797
     23 C          63.4966   86.9977   12.9797 C.3     1  UNL1        0.0372
     24 C          63.1144   85.6586   13.5370 C.3     1  UNL1        0.0741
     25 N          63.1034   85.4390   15.0209 N.3     1  UNL1       -0.2688
     26 C          63.4746   86.5588   15.9474 C.3     1  UNL1        0.0741
     27 C          63.8567   87.8979   15.3901 C.3     1  UNL1        0.0372
     28 C          62.7212   84.0999   15.5781 C.3     1  UNL1        0.0992
     29 C          62.7342   82.8882   14.6940 C.ar    1  UNL1       -0.0039
     30 C          63.9369   82.5894   13.8489 C.ar    1  UNL1       -0.0028
     31 C          63.9499   81.3777   12.9648 C.ar    1  UNL1        0.0020
     32 C          62.7603   80.4648   12.9260 C.ar    1  UNL1        0.0296
     33 C          61.5576   80.7636   13.7711 C.ar    1  UNL1        0.1399
     34 F          60.3680   79.8508   13.7322 F       1  UNL1       -0.2042
     35 C          61.5446   81.9754   14.6551 C.ar    1  UNL1        0.0267
@<TRIPOS>BOND
     1     1     2    2
     2     2     3   am
     3     3     4    1
     4     4     8    1
     5     8     9   ar
     6     9    10   ar
     7    10    11   ar
     8    11    12    1
     9    11    13   ar
    10    13    14   ar
    11     4    15    1
    12    15    16   ar
    13    16    17   ar
    14    17    18   ar
    15    18    19    1
    16    18    20   ar
    17    20    21   ar
    18     4     5    1
    19     5     6    1
    20     6    22    1
    21    22    23    1
    22    23    24    1
    23    24    25    1
    24    25    28    1
    25    28    29    1
    26    29    30   ar
    27    30    31   ar
    28    31    32   ar
    29    32    33   ar
    30    33    34    1
    31    33    35   ar
    32    25    26    1
    33    26    27    1
    34     6     2   am
    35    27    22    1
    36    14     8   ar
    37    21    15   ar
    38    35    29   ar
    39     3     7    1
@<TRIPOS>MOLECULE
*****
 35 39 0 0 0
SMALL
GASTEIGER

@<TRIPOS>ATOM
      1 O          63.0118   88.6964   13.5893 O.2     1  UNL1       -0.2526
      2 C          63.7444   89.8489   12.9689 C.2     1  UNL1        0.3044
      3 N          64.8904   90.5978   13.5818 N.am    1  UNL1       -0.2833
      4 C          65.3139   91.6667   12.6184 C.3     1  UNL1        0.1144
      5 C          64.4295   91.5784   11.4101 C.3     1  UNL1        0.1212
      6 N          63.4595   90.4549   11.6267 N.am    1  UNL1       -0.2634
      7 H          65.2939   90.4192   14.4619 H       1  UNL1        0.1515
      8 C          65.9500   92.8037   11.8751 C.ar    1  UNL1       -0.0007
      9 C          66.6870   92.5439   10.5947 C.ar    1  UNL1       -0.0001
     10 C          67.3231   93.6809    9.8515 C.ar    1  UNL1        0.0294
     11 C          67.2222   95.0778   10.3886 C.ar    1  UNL1        0.1401
     12 F          67.8584   96.2149    9.6453 F       1  UNL1       -0.2042
     13 C          66.4852   95.3377   11.6689 C.ar    1  UNL1        0.0294
     14 C          65.8491   94.2007   12.4121 C.ar    1  UNL1       -0.0001
     15 C          66.3312   91.9927   13.6713 C.ar    1  UNL1       -0.0007
     16 C          65.8856   92.4483   15.0292 C.ar    1  UNL1       -0.0001
     17 C          66.9030   92.7744   16.0822 C.ar    1  UNL1        0.0294
     18 C          68.3660   92.6448   15.7772 C.ar    1  UNL1        0.1401
     19 F          69.3833   92.9708   16.8301 F       1  UNL1       -0.2042
     20 C          68.8116   92.1892   14.4193 C.ar    1  UNL1        0.0294
     21 C          67.7942   91.8631   13.3663 C.ar    1  UNL1       -0.0001
     22 C          62.3920   90.0147   10.6692 C.3     1  UNL1        0.0797
     23 C          61.1416   90.8287   10.5142 C.3     1  UNL1        0.0372
     24 C          60.0741   90.3886    9.5568 C.3     1  UNL1        0.0741
     25 N          60.2570   89.1345    8.7543 N.3     1  UNL1       -0.2688
     26 C          61.5074   88.3206    8.9094 C.3     1  UNL1        0.0741
     27 C          62.5748   88.7607    9.8668 C.3     1  UNL1        0.0372
     28 C          59.1895   88.6944    7.7969 C.3     1  UNL1        0.0992
     29 C          58.7304   89.6190    6.7086 C.ar    1  UNL1       -0.0039
     30 C          57.2664   89.7654    6.4169 C.ar    1  UNL1       -0.0028
     31 C          56.8074   90.6900    5.3286 C.ar    1  UNL1        0.0020
     32 C          57.8124   91.4681    4.5320 C.ar    1  UNL1        0.0296
     33 C          59.2764   91.3217    4.8237 C.ar    1  UNL1        0.1399
     34 F          60.2814   92.0997    4.0271 F       1  UNL1       -0.2042
     35 C          59.7354   90.3971    5.9120 C.ar    1  UNL1        0.0267
@<TRIPOS>BOND
     1     1     2    2
     2     2     3   am
     3     3     4    1
     4     4     8    1
     5     8     9   ar
     6     9    10   ar
     7    10    11   ar
     8    11    12    1
     9    11    13   ar
    10    13    14   ar
    11     4    15    1
    12    15    16   ar
    13    16    17   ar
    14    17    18   ar
    15    18    19    1
    16    18    20   ar
    17    20    21   ar
    18     4     5    1
    19     5     6    1
    20     6    22    1
    21    22    23    1
    22    23    24    1
    23    24    25    1
    24    25    28    1
    25    28    29    1
    26    29    30   ar
    27    30    31   ar
    28    31    32   ar
    29    32    33   ar
    30    33    34    1
    31    33    35   ar
    32    25    26    1
    33    26    27    1
    34     6     2   am
    35    27    22    1
    36    14     8   ar
    37    21    15   ar
    38    35    29   ar
    39     3     7    1
@<TRIPOS>MOLECULE
*****
 35 39 0 0 0
SMALL
GASTEIGER

@<TRIPOS>ATOM
      1 O          64.1319   89.0269   14.9985 O.2     1  UNL1       -0.2526
      2 C          64.6880   90.0838   14.0909 C.2     1  UNL1        0.3044
      3 N          65.8000   91.0343   14.4221 N.am    1  UNL1       -0.2833
      4 C          66.0290   91.9136   13.2286 C.3     1  UNL1        0.1144
      5 C          65.0585   91.5064   12.1598 C.3     1  UNL1        0.1212
      6 N          64.2297   90.3755   12.6928 N.am    1  UNL1       -0.2634
      7 H          66.2930   91.0742   15.2733 H       1  UNL1        0.1515
      8 C          66.4807   92.9222   12.2142 C.ar    1  UNL1       -0.0007
      9 C          66.1426   94.3722   12.3963 C.ar    1  UNL1       -0.0001
     10 C          66.5943   95.3806   11.3819 C.ar    1  UNL1        0.0294
     11 C          67.3840   94.9391   10.1855 C.ar    1  UNL1        0.1401
     12 F          67.8357   95.9476    9.1711 F       1  UNL1       -0.2042
     13 C          67.7221   93.4891   10.0035 C.ar    1  UNL1        0.0294
     14 C          67.2704   92.4806   11.0178 C.ar    1  UNL1       -0.0001
     15 C          67.0939   92.5317   14.0853 C.ar    1  UNL1       -0.0007
     16 C          68.5336   92.1696   13.8700 C.ar    1  UNL1       -0.0001
     17 C          69.5986   92.7877   14.7268 C.ar    1  UNL1        0.0294
     18 C          69.2239   93.7677   15.7987 C.ar    1  UNL1        0.1401
     19 F          70.2888   94.3857   16.6554 F       1  UNL1       -0.2042
     20 C          67.7843   94.1298   16.0140 C.ar    1  UNL1        0.0294
     21 C          66.7192   93.5117   15.1573 C.ar    1  UNL1       -0.0001
     22 C          63.1348   89.6616   11.9568 C.3     1  UNL1        0.0797
     23 C          62.9995   88.1723   12.0741 C.3     1  UNL1        0.0372
     24 C          61.9046   87.4585   11.3382 C.3     1  UNL1        0.0741
     25 N          60.9451   88.2339   10.4848 N.3     1  UNL1       -0.2688
     26 C          61.0805   89.7231   10.3675 C.3     1  UNL1        0.0741
     27 C          62.1753   90.4370   11.1035 C.3     1  UNL1        0.0372
     28 C          59.8503   87.5200    9.7489 C.3     1  UNL1        0.0992
     29 C          60.1877   86.5818    8.6281 C.ar    1  UNL1       -0.0039
     30 C          59.1496   86.2343    7.6028 C.ar    1  UNL1       -0.0028
     31 C          59.4870   85.2961    6.4821 C.ar    1  UNL1        0.0020
     32 C          60.8626   84.7056    6.3868 C.ar    1  UNL1        0.0296
     33 C          61.9007   85.0532    7.4121 C.ar    1  UNL1        0.1399
     34 F          63.2763   84.4627    7.3168 F       1  UNL1       -0.2042
     35 C          61.5633   85.9913    8.5328 C.ar    1  UNL1        0.0267
@<TRIPOS>BOND
     1     1     2    2
     2     2     3   am
     3     3     4    1
     4     4     8    1
     5     8     9   ar
     6     9    10   ar
     7    10    11   ar
     8    11    12    1
     9    11    13   ar
    10    13    14   ar
    11     4    15    1
    12    15    16   ar
    13    16    17   ar
    14    17    18   ar
    15    18    19    1
    16    18    20   ar
    17    20    21   ar
    18     4     5    1
    19     5     6    1
    20     6    22    1
    21    22    23    1
    22    23    24    1
    23    24    25    1
    24    25    28    1
    25    28    29    1
    26    29    30   ar
    27    30    31   ar
    28    31    32   ar
    29    32    33   ar
    30    33    34    1
    31    33    35   ar
    32    25    26    1
    33    26    27    1
    34     6     2   am
    35    27    22    1
    36    14     8   ar
    37    21    15   ar
    38    35    29   ar
    39     3     7    1
@<TRIPOS>MOLECULE
*****
 35 39 0 0 0
SMALL
GASTEIGER

@<TRIPOS>ATOM
      1 O          64.0699   87.4272   16.0860 O.2     1  UNL1       -0.2526
      2 C          63.7505   86.9914   14.6867 C.2     1  UNL1        0.3044
      3 N          63.2689   85.6318   14.2750 N.am    1  UNL1       -0.2833
      4 C          63.0774   85.6389   12.7873 C.3     1  UNL1        0.1144
      5 C          63.4407   87.0028   12.2796 C.3     1  UNL1        0.1212
      6 N          63.8566   87.8387   13.4536 N.am    1  UNL1       -0.2634
      7 H          63.1070   84.8688   14.8757 H       1  UNL1        0.1515
      8 C          62.7978   85.3480   11.3425 C.ar    1  UNL1       -0.0007
      9 C          63.7939   84.5796   10.5257 C.ar    1  UNL1       -0.0001
     10 C          63.5142   84.2888    9.0810 C.ar    1  UNL1        0.0294
     11 C          62.2383   84.7664    8.4532 C.ar    1  UNL1        0.1401
     12 F          61.9587   84.4755    7.0084 F       1  UNL1       -0.2042
     13 C          61.2422   85.5347    9.2700 C.ar    1  UNL1        0.0294
     14 C          61.5219   85.8255   10.7147 C.ar    1  UNL1       -0.0001
     15 C          62.6558   84.2141   12.9929 C.ar    1  UNL1       -0.0007
     16 C          62.1266   83.7735   14.3254 C.ar    1  UNL1       -0.0001
     17 C          61.7049   82.3487   14.5311 C.ar    1  UNL1        0.0294
     18 C          61.8124   81.3646   13.4041 C.ar    1  UNL1        0.1401
     19 F          61.3907   79.9399   13.6098 F       1  UNL1       -0.2042
     20 C          62.3415   81.8052   12.0716 C.ar    1  UNL1        0.0294
     21 C          62.7632   83.2300   11.8659 C.ar    1  UNL1       -0.0001
     22 C          64.3008   89.2706   13.4032 C.3     1  UNL1        0.0797
     23 C          63.7981   90.1739   12.3162 C.3     1  UNL1        0.0372
     24 C          64.2423   91.6057   12.2658 C.3     1  UNL1        0.0741
     25 N          65.1890   92.1344   13.3024 N.3     1  UNL1       -0.2688
     26 C          65.6916   91.2310   14.3893 C.3     1  UNL1        0.0741
     27 C          65.2474   89.7992   14.4397 C.3     1  UNL1        0.0372
     28 C          65.6331   93.5661   13.2519 C.3     1  UNL1        0.0992
     29 C          66.2044   94.1301   11.9848 C.ar    1  UNL1       -0.0039
     30 C          66.1384   95.6058   11.7241 C.ar    1  UNL1       -0.0028
     31 C          66.7097   96.1697   10.4570 C.ar    1  UNL1        0.0020
     32 C          67.3469   95.2580    9.4506 C.ar    1  UNL1        0.0296
     33 C          67.4128   93.7823    9.7113 C.ar    1  UNL1        0.1399
     34 F          68.0500   92.8706    8.7050 F       1  UNL1       -0.2042
     35 C          66.8415   93.2184   10.9784 C.ar    1  UNL1        0.0267
@<TRIPOS>BOND
     1     1     2    2
     2     2     3   am
     3     3     4    1
     4     4     8    1
     5     8     9   ar
     6     9    10   ar
     7    10    11   ar
     8    11    12    1
     9    11    13   ar
    10    13    14   ar
    11     4    15    1
    12    15    16   ar
    13    16    17   ar
    14    17    18   ar
    15    18    19    1
    16    18    20   ar
    17    20    21   ar
    18     4     5    1
    19     5     6    1
    20     6    22    1
    21    22    23    1
    22    23    24    1
    23    24    25    1
    24    25    28    1
    25    28    29    1
    26    29    30   ar
    27    30    31   ar
    28    31    32   ar
    29    32    33   ar
    30    33    34    1
    31    33    35   ar
    32    25    26    1
    33    26    27    1
    34     6     2   am
    35    27    22    1
    36    14     8   ar
    37    21    15   ar
    38    35    29   ar
    39     3     7    1
@<TRIPOS>MOLECULE
*****
 35 39 0 0 0
SMALL
GASTEIGER

@<TRIPOS>ATOM
      1 O          63.2863   85.6212   17.5775 O.2     1  UNL1       -0.2526
      2 C          63.2962   85.3897   16.0955 C.2     1  UNL1        0.3044
      3 N          63.0459   84.0814   15.4058 N.am    1  UNL1       -0.2833
      4 C          63.1532   84.3090   13.9271 C.3     1  UNL1        0.1144
      5 C          63.4697   85.7580   13.7029 C.3     1  UNL1        0.1212
      6 N          63.5582   86.4259   15.0430 N.am    1  UNL1       -0.2634
      7 H          62.8463   83.2239   15.8464 H       1  UNL1        0.1515
      8 C          63.1961   84.2302   12.4297 C.ar    1  UNL1       -0.0007
      9 C          62.2467   85.0507   11.6080 C.ar    1  UNL1       -0.0001
     10 C          62.2897   84.9719   10.1107 C.ar    1  UNL1        0.0294
     11 C          63.2820   84.0725    9.4352 C.ar    1  UNL1        0.1401
     12 F          63.3250   83.9937    7.9378 F       1  UNL1       -0.2042
     13 C          64.2314   83.2520   10.2569 C.ar    1  UNL1        0.0294
     14 C          64.1885   83.3308   11.7542 C.ar    1  UNL1       -0.0001
     15 C          62.8456   82.8436   13.8383 C.ar    1  UNL1       -0.0007
     16 C          61.4252   82.3689   13.9237 C.ar    1  UNL1       -0.0001
     17 C          61.1176   80.9034   13.8349 C.ar    1  UNL1        0.0294
     18 C          62.2303   79.9127   13.6606 C.ar    1  UNL1        0.1401
     19 F          61.9226   78.4473   13.5718 F       1  UNL1       -0.2042
     20 C          63.6506   80.3874   13.5752 C.ar    1  UNL1        0.0294
     21 C          63.9583   81.8529   13.6640 C.ar    1  UNL1       -0.0001
     22 C          63.8562   87.8755   15.2878 C.3     1  UNL1        0.0797
     23 C          63.2645   88.5724   16.4770 C.3     1  UNL1        0.0372
     24 C          63.5625   90.0220   16.7217 C.3     1  UNL1        0.0741
     25 N          64.4522   90.7747   15.7772 N.3     1  UNL1       -0.2688
     26 C          65.0438   90.0777   14.5880 C.3     1  UNL1        0.0741
     27 C          64.7458   88.6282   14.3433 C.3     1  UNL1        0.0372
     28 C          64.7502   92.2242   16.0220 C.3     1  UNL1        0.0992
     29 C          66.1342   92.7548   15.7916 C.ar    1  UNL1       -0.0039
     30 C          66.3649   93.8298   14.7713 C.ar    1  UNL1       -0.0028
     31 C          67.7489   94.3603   14.5409 C.ar    1  UNL1        0.0020
     32 C          68.9020   93.8159   15.3308 C.ar    1  UNL1        0.0296
     33 C          68.6712   92.7409   16.3511 C.ar    1  UNL1        0.1399
     34 F          69.8243   92.1965   17.1410 F       1  UNL1       -0.2042
     35 C          67.2873   92.2104   16.5815 C.ar    1  UNL1        0.0267
@<TRIPOS>BOND
     1     1     2    2
     2     2     3   am
     3     3     4    1
     4     4     8    1
     5     8     9   ar
     6     9    10   ar
     7    10    11   ar
     8    11    12    1
     9    11    13   ar
    10    13    14   ar
    11     4    15    1
    12    15    16   ar
    13    16    17   ar
    14    17    18   ar
    15    18    19    1
    16    18    20   ar
    17    20    21   ar
    18     4     5    1
    19     5     6    1
    20     6    22    1
    21    22    23    1
    22    23    24    1
    23    24    25    1
    24    25    28    1
    25    28    29    1
    26    29    30   ar
    27    30    31   ar
    28    31    32   ar
    29    32    33   ar
    30    33    34    1
    31    33    35   ar
    32    25    26    1
    33    26    27    1
    34     6     2   am
    35    27    22    1
    36    14     8   ar
    37    21    15   ar
    38    35    29   ar
    39     3     7    1
@<TRIPOS>MOLECULE
*****
 35 39 0 0 0
SMALL
GASTEIGER

@<TRIPOS>ATOM
      1 O          56.9257   91.4051    5.4525 O.2     1  UNL1       -0.2526
      2 C          58.2742   91.5800    4.8194 C.2     1  UNL1        0.3044
      3 N          58.5861   92.4439    3.6335 N.am    1  UNL1       -0.2833
      4 C          60.0522   92.3195    3.3422 C.3     1  UNL1        0.1144
      5 C          60.6465   91.3787    4.3480 C.3     1  UNL1        0.1212
      6 N          59.5476   90.9216    5.2610 N.am    1  UNL1       -0.2634
      7 H          57.9416   92.9957    3.1340 H       1  UNL1        0.1515
      8 C          61.4555   92.3951    2.8176 C.ar    1  UNL1       -0.0007
      9 C          62.4781   91.3926    3.2640 C.ar    1  UNL1       -0.0001
     10 C          63.8813   91.4682    2.7394 C.ar    1  UNL1        0.0294
     11 C          64.2620   92.5463    1.7684 C.ar    1  UNL1        0.1401
     12 F          65.6653   92.6219    1.2438 F       1  UNL1       -0.2042
     13 C          63.2394   93.5488    1.3220 C.ar    1  UNL1        0.0294
     14 C          61.8362   93.4732    1.8466 C.ar    1  UNL1       -0.0001
     15 C          59.7514   93.2761    2.2267 C.ar    1  UNL1       -0.0007
     16 C          59.1843   92.7671    0.9347 C.ar    1  UNL1       -0.0001
     17 C          58.8834   93.7237   -0.1809 C.ar    1  UNL1        0.0294
     18 C          59.1496   95.1893   -0.0044 C.ar    1  UNL1        0.1401
     19 F          58.8487   96.1458   -1.1199 F       1  UNL1       -0.2042
     20 C          59.7167   95.6983    1.2876 C.ar    1  UNL1        0.0294
     21 C          60.0176   94.7417    2.4032 C.ar    1  UNL1       -0.0001
     22 C          59.6960   89.9728    6.4132 C.3     1  UNL1        0.0797
     23 C          60.3726   90.4239    7.6738 C.3     1  UNL1        0.0372
     24 C          60.5210   89.4751    8.8260 C.3     1  UNL1        0.0741
     25 N          59.9929   88.0752    8.7178 N.3     1  UNL1       -0.2688
     26 C          59.3164   87.6242    7.4573 C.3     1  UNL1        0.0741
     27 C          59.1680   88.5730    6.3050 C.3     1  UNL1        0.0372
     28 C          60.1414   87.1265    9.8701 C.3     1  UNL1        0.0992
     29 C          61.2886   86.1607    9.9035 C.ar    1  UNL1       -0.0039
     30 C          62.0666   85.8769    8.6528 C.ar    1  UNL1       -0.0028
     31 C          63.2139   84.9111    8.6862 C.ar    1  UNL1        0.0020
     32 C          63.5830   84.2291    9.9702 C.ar    1  UNL1        0.0296
     33 C          62.8050   84.5129   11.2208 C.ar    1  UNL1        0.1399
     34 F          63.1741   83.8309   12.5048 F       1  UNL1       -0.2042
     35 C          61.6578   85.4787   11.1875 C.ar    1  UNL1        0.0267
@<TRIPOS>BOND
     1     1     2    2
     2     2     3   am
     3     3     4    1
     4     4     8    1
     5     8     9   ar
     6     9    10   ar
     7    10    11   ar
     8    11    12    1
     9    11    13   ar
    10    13    14   ar
    11     4    15    1
    12    15    16   ar
    13    16    17   ar
    14    17    18   ar
    15    18    19    1
    16    18    20   ar
    17    20    21   ar
    18     4     5    1
    19     5     6    1
    20     6    22    1
    21    22    23    1
    22    23    24    1
    23    24    25    1
    24    25    28    1
    25    28    29    1
    26    29    30   ar
    27    30    31   ar
    28    31    32   ar
    29    32    33   ar
    30    33    34    1
    31    33    35   ar
    32    25    26    1
    33    26    27    1
    34     6     2   am
    35    27    22    1
    36    14     8   ar
    37    21    15   ar
    38    35    29   ar
    39     3     7    1
@<TRIPOS>MOLECULE
*****
 35 39 0 0 0
SMALL
GASTEIGER

@<TRIPOS>ATOM
      1 O          62.2447   90.5658    9.7343 O.2     1  UNL1       -0.2526
      2 C          62.4491   89.1254   10.0997 C.2     1  UNL1        0.3044
      3 N          62.0930   87.9413    9.2506 N.am    1  UNL1       -0.2833
      4 C          62.4692   86.7004   10.0046 C.3     1  UNL1        0.1144
      5 C          63.0579   87.1175   11.3196 C.3     1  UNL1        0.1212
      6 N          63.0455   88.6164   11.3785 N.am    1  UNL1       -0.2634
      7 H          61.6841   87.9731    8.3556 H       1  UNL1        0.1515
      8 C          62.7340   85.3114   10.5055 C.ar    1  UNL1       -0.0007
      9 C          62.0917   84.8369   11.7752 C.ar    1  UNL1       -0.0001
     10 C          62.3564   83.4480   12.2760 C.ar    1  UNL1        0.0294
     11 C          63.2636   82.5337   11.5071 C.ar    1  UNL1        0.1401
     12 F          63.5283   81.1447   12.0080 F       1  UNL1       -0.2042
     13 C          63.9059   83.0082   10.2374 C.ar    1  UNL1        0.0294
     14 C          63.6411   84.3971    9.7366 C.ar    1  UNL1       -0.0001
     15 C          61.9359   85.9928    8.7942 C.ar    1  UNL1       -0.0007
     16 C          62.8749   85.2747    7.8708 C.ar    1  UNL1       -0.0001
     17 C          62.3416   84.5671    6.6604 C.ar    1  UNL1        0.0294
     18 C          60.8693   84.5777    6.3735 C.ar    1  UNL1        0.1401
     19 F          60.3361   83.8701    5.1632 F       1  UNL1       -0.2042
     20 C          59.9303   85.2958    7.2969 C.ar    1  UNL1        0.0294
     21 C          60.4636   86.0034    8.5073 C.ar    1  UNL1       -0.0001
     22 C          63.5422   89.4582   12.5162 C.3     1  UNL1        0.0797
     23 C          63.8275   90.9152   12.3023 C.3     1  UNL1        0.0372
     24 C          64.3242   91.7571   13.4400 C.3     1  UNL1        0.0741
     25 N          64.5356   91.1420   14.7918 N.3     1  UNL1       -0.2688
     26 C          64.2503   89.6850   15.0056 C.3     1  UNL1        0.0741
     27 C          63.7536   88.8432   13.8679 C.3     1  UNL1        0.0372
     28 C          65.0323   91.9839   15.9294 C.3     1  UNL1        0.0992
     29 C          66.4143   92.5655   15.8847 C.ar    1  UNL1       -0.0039
     30 C          66.6789   93.8096   15.0896 C.ar    1  UNL1       -0.0028
     31 C          68.0609   94.3911   15.0448 C.ar    1  UNL1        0.0020
     32 C          69.1781   93.7286   15.7951 C.ar    1  UNL1        0.0296
     33 C          68.9135   92.4845   16.5901 C.ar    1  UNL1        0.1399
     34 F          70.0307   91.8219   17.3404 F       1  UNL1       -0.2042
     35 C          67.5315   91.9029   16.6349 C.ar    1  UNL1        0.0267
@<TRIPOS>BOND
     1     1     2    2
     2     2     3   am
     3     3     4    1
     4     4     8    1
     5     8     9   ar
     6     9    10   ar
     7    10    11   ar
     8    11    12    1
     9    11    13   ar
    10    13    14   ar
    11     4    15    1
    12    15    16   ar
    13    16    17   ar
    14    17    18   ar
    15    18    19    1
    16    18    20   ar
    17    20    21   ar
    18     4     5    1
    19     5     6    1
    20     6    22    1
    21    22    23    1
    22    23    24    1
    23    24    25    1
    24    25    28    1
    25    28    29    1
    26    29    30   ar
    27    30    31   ar
    28    31    32   ar
    29    32    33   ar
    30    33    34    1
    31    33    35   ar
    32    25    26    1
    33    26    27    1
    34     6     2   am
    35    27    22    1
    36    14     8   ar
    37    21    15   ar
    38    35    29   ar
    39     3     7    1
