@<TRIPOS>MOLECULE
*****
 39 43 0 0 0
SMALL
GASTEIGER

@<TRIPOS>ATOM
      1 CA         60.6930   88.6755   10.1076 C.3     2  ILE2        0.1523
      2 C          60.6107   90.1584   10.3179 C.2     2  ILE2        0.2409
      3 O          59.5362   90.9539    9.6377 O.2     2  ILE2       -0.2733
      4 N          61.6029   90.8458   11.2085 N.am    1  UNK1       -0.2970
      5 C          62.6773   90.0503   11.8887 C.3     1  UNK1        0.1494
      6 C          62.7596   88.5675   11.6784 C.2     1  UNK1        0.2444
      7 O          63.8341   87.7719   12.3587 O.2     1  UNK1       -0.2731
      8 N          61.7674   87.8801   10.7879 N.am    2  ILE2       -0.2615
      9 H          61.5489   91.8191   11.3465 H       1  UNK1        0.1499
     10 C          63.6695   90.7377   12.7792 C.3     1  UNK1        0.0356
     11 C          64.8195   91.5879   12.3268 C.3     1  UNK1        0.0285
     12 C          65.5467   92.0713   13.5465 C.ar    1  UNK1       -0.0261
     13 C          66.7562   92.9423   13.7146 C.ar    1  UNK1       -0.0046
     14 C          67.2651   93.2618   15.0889 C.ar    1  UNK1       -0.0003
     15 C          66.5645   92.7104   16.2952 C.ar    1  UNK1       -0.0003
     16 C          65.3549   91.8394   16.1271 C.ar    1  UNK1       -0.0046
     17 C          64.8460   91.5199   14.7528 C.ar    1  UNK1       -0.0261
     18 C          63.6859   90.6957   14.2786 C.3     1  UNK1        0.0285
     19 CB         59.7008   87.9881    9.2171 C.3     2  ILE2        0.0272
     20 CG2        58.8245   87.4130    9.5288 C.3     2  ILE2        0.0022
     21 CD1        59.1473   89.1106    6.9403 C.3     2  ILE2        0.0001
     22 CG1        59.8607   88.0512    7.7270 C.3     2  ILE2        0.0021
     23 C          61.8497   86.3971   10.5776 C.3     0  UNK0        0.1764
     24 C          61.8973   85.4736   11.7587 C.2     0  UNK0        0.2483
     25 O          61.3754   85.5966   12.7117 O.2     0  UNK0       -0.2727
     26 N          62.7286   84.2263   11.7025 N.am    0  UNK0       -0.2728
     27 C          63.5123   83.9024   10.4651 C.3     0  UNK0        0.1255
     28 C          64.3435   82.6551   10.4089 C.3     0  UNK0        0.1636
     29 O          64.3912   81.7317   11.5900 O.3     0  UNK0       -0.3501
     30 C          63.6075   82.0555   12.8273 C.3     0  UNK0        0.1636
     31 C          62.7762   83.3029   12.8836 C.3     0  UNK0        0.1255
     32 C          61.8844   85.8377    9.1863 C.ar    0  UNK0        0.0181
     33 C          60.6310   85.2984    8.5633 C.ar    0  UNK0        0.0002
     34 C          60.6657   84.7389    7.1719 C.ar    0  UNK0        0.0145
     35 C          61.9538   84.7188    6.4036 C.ar    0  UNK0        0.0589
     36 C          61.9885   84.1593    5.0123 C.3     0  UNK0        0.0521
     37 N          63.2072   85.2580    7.0266 N.ar    0  UNK0       -0.2542
     38 C          63.1725   85.8175    8.4179 C.ar    0  UNK0        0.0570
     39 C          63.9170   86.0525    8.5789 C.3     0  UNK0        0.0518
@<TRIPOS>BOND
     1    21    22    1
     2    22    19    1
     3    19    20    1
     4    19     1    1
     5     1     2    1
     6     2     3    2
     7     2     4   am
     8     4     5    1
     9     5    10    1
    10    10    11    1
    11    11    12    1
    12    12    13   ar
    13    13    14   ar
    14    14    15   ar
    15    15    16   ar
    16    16    17   ar
    17    17    18    1
    18     5     6    1
    19     6     7    2
    20     6     8   am
    21    23     8    1
    22    23    24    1
    23    24    25    2
    24    24    26   am
    25    26    27    1
    26    27    28    1
    27    28    29    1
    28    29    30    1
    29    30    31    1
    30    23    32    1
    31    32    33   ar
    32    33    34   ar
    33    34    35   ar
    34    35    36    1
    35    35    37   ar
    36    37    38   ar
    37    38    39    1
    38     1     8    1
    39    31    26    1
    40    38    32   ar
    41    18    10    1
    42    17    12   ar
    43     4     9    1
@<TRIPOS>MOLECULE
*****
 39 43 0 0 0
SMALL
GASTEIGER

@<TRIPOS>ATOM
      1 CA         63.3487   90.1556   14.8438 C.3     2  ILE2        0.1523
      2 C          64.1319   91.3378   15.3326 C.2     2  ILE2        0.2409
      3 O          64.1875   91.6460   16.7996 O.2     2  ILE2       -0.2733
      4 N          64.8594   92.2118   14.3545 N.am    1  UNK1       -0.2970
      5 C          64.8038   91.9037   12.8876 C.3     1  UNK1        0.1494
      6 C          64.0206   90.7215   12.3988 C.2     1  UNK1        0.2444
      7 O          63.9650   90.4133   10.9318 O.2     1  UNK1       -0.2731
      8 N          63.2931   89.8474   13.3769 N.am    2  ILE2       -0.2615
      9 H          65.3734   92.9878   14.6753 H       1  UNK1        0.1499
     10 C          65.5313   92.7777   11.9095 C.3     1  UNK1        0.0356
     11 C          65.6269   94.2736   11.9652 C.3     1  UNK1        0.0285
     12 C          66.4457   94.7298   10.7941 C.ar    1  UNK1       -0.0261
     13 C          66.8706   96.0937   10.3368 C.ar    1  UNK1       -0.0046
     14 C          67.7059   96.2437    9.1000 C.ar    1  UNK1       -0.0003
     15 C          68.1163   95.0296    8.3204 C.ar    1  UNK1       -0.0003
     16 C          67.6915   93.6657    8.7777 C.ar    1  UNK1       -0.0046
     17 C          66.8562   93.5158   10.0145 C.ar    1  UNK1       -0.0261
     18 C          66.2911   92.3094   10.7039 C.3     1  UNK1        0.0285
     19 CB         62.6211   89.2815   15.8219 C.3     2  ILE2        0.0272
     20 CG2        61.5396   89.1413   15.9013 C.3     2  ILE2        0.0022
     21 CD1        62.7398   87.3238   17.5258 C.3     2  ILE2        0.0001
     22 CG1        63.3913   88.4827   16.8311 C.3     2  ILE2        0.0021
     23 C          62.5099   88.6652   12.8880 C.3     0  UNK0        0.1764
     24 C          61.2180   88.8727   12.1545 C.2     0  UNK0        0.2483
     25 O          60.3440   89.4284   12.5053 O.2     0  UNK0       -0.2727
     26 N          61.0291   88.2854   10.7873 N.am    0  UNK0       -0.2728
     27 C          62.1321   87.4905   10.1535 C.3     0  UNK0        0.1255
     28 C          61.9431   86.9032    8.7863 C.3     0  UNK0        0.1636
     29 O          60.6513   87.1108    8.0528 O.3     0  UNK0       -0.3501
     30 C          59.5483   87.9056    8.6865 C.3     0  UNK0        0.1636
     31 C          59.7372   88.4930   10.0538 C.3     0  UNK0        0.1255
     32 C          63.0185   87.2754   13.1326 C.ar    0  UNK0        0.0181
     33 C          62.3004   86.0989   12.5408 C.ar    0  UNK0        0.0002
     34 C          62.8092   84.7092   12.7855 C.ar    0  UNK0        0.0145
     35 C          64.0359   84.4959   13.6219 C.ar    0  UNK0        0.0589
     36 C          64.5446   83.1062   13.8665 C.3     0  UNK0        0.0521
     37 N          64.7540   85.6725   14.2136 N.ar    0  UNK0       -0.2542
     38 C          64.2453   87.0622   13.9690 C.ar    0  UNK0        0.0570
     39 C          64.7444   87.5499   14.3544 C.3     0  UNK0        0.0518
@<TRIPOS>BOND
     1    21    22    1
     2    22    19    1
     3    19    20    1
     4    19     1    1
     5     1     2    1
     6     2     3    2
     7     2     4   am
     8     4     5    1
     9     5    10    1
    10    10    11    1
    11    11    12    1
    12    12    13   ar
    13    13    14   ar
    14    14    15   ar
    15    15    16   ar
    16    16    17   ar
    17    17    18    1
    18     5     6    1
    19     6     7    2
    20     6     8   am
    21    23     8    1
    22    23    24    1
    23    24    25    2
    24    24    26   am
    25    26    27    1
    26    27    28    1
    27    28    29    1
    28    29    30    1
    29    30    31    1
    30    23    32    1
    31    32    33   ar
    32    33    34   ar
    33    34    35   ar
    34    35    36    1
    35    35    37   ar
    36    37    38   ar
    37    38    39    1
    38     1     8    1
    39    31    26    1
    40    38    32   ar
    41    18    10    1
    42    17    12   ar
    43     4     9    1
@<TRIPOS>MOLECULE
*****
 39 43 0 0 0
SMALL
GASTEIGER

@<TRIPOS>ATOM
      1 CA         63.6333   90.3572   14.6284 C.3     2  ILE2        0.1523
      2 C          64.1975   91.6531   15.1307 C.2     2  ILE2        0.2409
      3 O          64.0894   92.0046   16.5850 O.2     2  ILE2       -0.2733
      4 N          64.8697   92.5976   14.1788 N.am    1  UNK1       -0.2970
      5 C          64.9777   92.2462   12.7246 C.3     1  UNK1        0.1494
      6 C          64.4136   90.9503   12.2223 C.2     1  UNK1        0.2444
      7 O          64.5217   90.5988   10.7680 O.2     1  UNK1       -0.2731
      8 N          63.7414   90.0058   13.1742 N.am    2  ILE2       -0.2615
      9 H          65.2399   93.4482   14.5085 H       1  UNK1        0.1499
     10 C          65.6499   93.1906   11.7727 C.3     1  UNK1        0.0356
     11 C          66.3196   92.8155   10.4840 C.3     1  UNK1        0.0285
     12 C          66.8541   94.0691    9.8572 C.ar    1  UNK1       -0.0261
     13 C          67.6059   94.3120    8.5822 C.ar    1  UNK1       -0.0046
     14 C          68.0183   95.7049    8.2085 C.ar    1  UNK1       -0.0003
     15 C          67.6789   96.8549    9.1098 C.ar    1  UNK1       -0.0003
     16 C          66.9271   96.6119   10.3848 C.ar    1  UNK1       -0.0046
     17 C          66.5147   95.2190   10.7585 C.ar    1  UNK1       -0.0261
     18 C          65.7705   94.6761   11.9424 C.3     1  UNK1        0.0285
     19 CB         62.9611   89.4128   15.5803 C.3     2  ILE2        0.0272
     20 CG2        61.8862   89.2994   15.7458 C.3     2  ILE2        0.0022
     21 CD1        63.1123   87.5290   17.3632 C.3     2  ILE2        0.0001
     22 CG1        63.7853   88.4929   16.4315 C.3     2  ILE2        0.0021
     23 C          63.1773   88.7098   12.6719 C.3     0  UNK0        0.1764
     24 C          63.6080   87.4138   13.2922 C.2     0  UNK0        0.2483
     25 O          64.2257   87.2849   14.1852 O.2     0  UNK0       -0.2727
     26 N          63.1854   86.1118   12.6789 N.am    0  UNK0       -0.2728
     27 C          62.3322   86.1058   11.4451 C.3     0  UNK0        0.1255
     28 C          61.9097   84.8038   10.8318 C.3     0  UNK0        0.1636
     29 O          62.3403   83.5077   11.4522 O.3     0  UNK0       -0.3501
     30 C          63.1936   83.5137   12.6858 C.3     0  UNK0        0.1636
     31 C          63.6161   84.8158   13.2992 C.3     0  UNK0        0.1255
     32 C          62.1825   88.7099   11.5492 C.ar    0  UNK0        0.0181
     33 C          62.5993   88.2678   10.1778 C.ar    0  UNK0        0.0002
     34 C          61.6044   88.2679    9.0551 C.ar    0  UNK0        0.0145
     35 C          60.1929   88.7102    9.3039 C.ar    0  UNK0        0.0589
     36 C          59.1981   88.7103    8.1812 C.3     0  UNK0        0.0521
     37 N          59.7761   89.1523   10.6753 N.ar    0  UNK0       -0.2542
     38 C          60.7709   89.1522   11.7980 C.ar    0  UNK0        0.0570
     39 C          60.3774   89.4130   12.4403 C.3     0  UNK0        0.0518
@<TRIPOS>BOND
     1    21    22    1
     2    22    19    1
     3    19    20    1
     4    19     1    1
     5     1     2    1
     6     2     3    2
     7     2     4   am
     8     4     5    1
     9     5    10    1
    10    10    11    1
    11    11    12    1
    12    12    13   ar
    13    13    14   ar
    14    14    15   ar
    15    15    16   ar
    16    16    17   ar
    17    17    18    1
    18     5     6    1
    19     6     7    2
    20     6     8   am
    21    23     8    1
    22    23    24    1
    23    24    25    2
    24    24    26   am
    25    26    27    1
    26    27    28    1
    27    28    29    1
    28    29    30    1
    29    30    31    1
    30    23    32    1
    31    32    33   ar
    32    33    34   ar
    33    34    35   ar
    34    35    36    1
    35    35    37   ar
    36    37    38   ar
    37    38    39    1
    38     1     8    1
    39    31    26    1
    40    38    32   ar
    41    18    10    1
    42    17    12   ar
    43     4     9    1
@<TRIPOS>MOLECULE
*****
 39 43 0 0 0
SMALL
GASTEIGER

@<TRIPOS>ATOM
      1 CA         64.8039   90.9379   14.2512 C.3     2  ILE2        0.1523
      2 C          63.8513   89.8111   14.5208 C.2     2  ILE2        0.2409
      3 O          63.7493   89.2288   15.8995 O.2     2  ILE2       -0.2733
      4 N          63.0006   89.2666   13.4118 N.am    1  UNK1       -0.2970
      5 C          63.1026   89.8488   12.0333 C.3     1  UNK1        0.1494
      6 C          64.0553   90.9756   11.7637 C.2     1  UNK1        0.2444
      7 O          64.1573   91.5580   10.3850 O.2     1  UNK1       -0.2731
      8 N          64.9059   91.5202   12.8727 N.am    2  ILE2       -0.2615
      9 H          62.3754   88.5270   13.5888 H       1  UNK1        0.1499
     10 C          62.2520   89.3043   10.9243 C.3     1  UNK1        0.0356
     11 C          61.3542   90.1042   10.0276 C.3     1  UNK1        0.0285
     12 C          60.6971   89.1585    9.0664 C.ar    1  UNK1       -0.0261
     13 C          59.7146   89.3792    7.9546 C.ar    1  UNK1       -0.0046
     14 C          59.2237   88.2154    7.1456 C.ar    1  UNK1       -0.0003
     15 C          59.7154   86.8309    7.4483 C.ar    1  UNK1       -0.0003
     16 C          60.6979   86.6103    8.5600 C.ar    1  UNK1       -0.0046
     17 C          61.1887   87.7741    9.3690 C.ar    1  UNK1       -0.0261
     18 C          62.1497   87.8642   10.5173 C.3     1  UNK1        0.0285
     19 CB         65.6546   91.4825   15.3602 C.3     2  ILE2        0.0272
     20 CG2        66.6504   91.1399   15.6547 C.3     2  ILE2        0.0022
     21 CD1        64.0431   92.3940   17.1829 C.3     2  ILE2        0.0001
     22 CG1        65.1538   92.6197   16.2004 C.3     2  ILE2        0.0021
     23 C          65.8586   92.6470   12.6030 C.3     0  UNK0        0.1764
     24 C          65.6580   93.5286   11.4061 C.2     0  UNK0        0.2483
     25 O          64.8694   94.2721   11.2611 O.2     0  UNK0       -0.2727
     26 N          66.5998   93.4386   10.2421 N.am    0  UNK0       -0.2728
     27 C          67.7423   92.4671   10.2750 C.3     0  UNK0        0.1255
     28 C          68.6841   92.3772    9.1111 C.3     0  UNK0        0.1636
     29 O          68.4835   93.2587    7.9141 O.3     0  UNK0       -0.3501
     30 C          67.3411   94.2302    7.8811 C.3     0  UNK0        0.1636
     31 C          66.3992   94.3202    9.0452 C.3     0  UNK0        0.1255
     32 C          67.0118   92.8923   13.5303 C.ar    0  UNK0        0.0181
     33 C          66.9293   93.9819   14.5579 C.ar    0  UNK0        0.0002
     34 C          68.0826   94.2272   15.4852 C.ar    0  UNK0        0.0145
     35 C          69.3184   93.3829   15.3848 C.ar    0  UNK0        0.0589
     36 C          70.4716   93.6282   16.3121 C.3     0  UNK0        0.0521
     37 N          69.4009   92.2933   14.3572 N.ar    0  UNK0       -0.2542
     38 C          68.2477   92.0480   13.4300 C.ar    0  UNK0        0.0570
     39 C          68.4675   91.4417   12.9614 C.3     0  UNK0        0.0518
@<TRIPOS>BOND
     1    21    22    1
     2    22    19    1
     3    19    20    1
     4    19     1    1
     5     1     2    1
     6     2     3    2
     7     2     4   am
     8     4     5    1
     9     5    10    1
    10    10    11    1
    11    11    12    1
    12    12    13   ar
    13    13    14   ar
    14    14    15   ar
    15    15    16   ar
    16    16    17   ar
    17    17    18    1
    18     5     6    1
    19     6     7    2
    20     6     8   am
    21    23     8    1
    22    23    24    1
    23    24    25    2
    24    24    26   am
    25    26    27    1
    26    27    28    1
    27    28    29    1
    28    29    30    1
    29    30    31    1
    30    23    32    1
    31    32    33   ar
    32    33    34   ar
    33    34    35   ar
    34    35    36    1
    35    35    37   ar
    36    37    38   ar
    37    38    39    1
    38     1     8    1
    39    31    26    1
    40    38    32   ar
    41    18    10    1
    42    17    12   ar
    43     4     9    1
@<TRIPOS>MOLECULE
*****
 39 43 0 0 0
SMALL
GASTEIGER

@<TRIPOS>ATOM
      1 CA         63.3517   85.5805   14.2204 C.3     2  ILE2        0.1523
      2 C          64.1300   86.2700   15.3015 C.2     2  ILE2        0.2409
      3 O          64.4359   85.5498   16.5813 O.2     2  ILE2       -0.2733
      4 N          64.6025   87.6797   15.1028 N.am    1  UNK1       -0.2970
      5 C          64.2966   88.3999   13.8231 C.3     1  UNK1        0.1494
      6 C          63.5183   87.7104   12.7420 C.2     1  UNK1        0.2444
      7 O          63.2124   88.4306   11.4622 O.2     1  UNK1       -0.2731
      8 N          63.0458   86.3007   12.9407 N.am    2  ILE2       -0.2615
      9 H          65.1133   88.1323   15.8124 H       1  UNK1        0.1499
     10 C          64.7691   89.8097   13.6245 C.3     1  UNK1        0.0356
     11 C          64.5815   90.6363   12.3870 C.3     1  UNK1        0.0285
     12 C          65.2085   91.9778   12.6261 C.ar    1  UNK1       -0.0261
     13 C          65.3301   93.1974   11.7614 C.ar    1  UNK1       -0.0046
     14 C          66.0268   94.4195   12.2820 C.ar    1  UNK1       -0.0003
     15 C          66.6020   94.4219   13.6674 C.ar    1  UNK1       -0.0003
     16 C          66.4804   93.2023   14.5321 C.ar    1  UNK1       -0.0046
     17 C          65.7837   91.9803   14.0114 C.ar    1  UNK1       -0.0261
     18 C          65.5121   90.6403   14.6284 C.3     1  UNK1        0.0285
     19 CB         62.8793   84.1707   14.4190 C.3     2  ILE2        0.0272
     20 CG2        61.8753   83.8477   14.7077 C.3     2  ILE2        0.0022
     21 CD1        63.3663   81.6190   14.4548 C.3     2  ILE2        0.0001
     22 CG1        63.8281   83.0265   14.2186 C.3     2  ILE2        0.0021
     23 C          62.2675   85.6112   11.8595 C.3     0  UNK0        0.1764
     24 C          61.1387   86.3248   11.1766 C.2     0  UNK0        0.2483
     25 O          60.3899   86.9705   11.6435 O.2     0  UNK0       -0.2727
     26 N          60.9514   86.1868    9.6947 N.am    0  UNK0       -0.2728
     27 C          61.8929   85.3351    8.8958 C.3     0  UNK0        0.1255
     28 C          61.7056   85.1971    7.4140 C.3     0  UNK0        0.1636
     29 O          60.5768   85.9107    6.7310 O.3     0  UNK0       -0.3501
     30 C          59.6353   86.7623    7.5298 C.3     0  UNK0        0.1636
     31 C          59.8225   86.9004    9.0117 C.3     0  UNK0        0.1255
     32 C          62.6180   84.2081   11.4614 C.ar    0  UNK0        0.0181
     33 C          61.6521   83.0907   11.7232 C.ar    0  UNK0        0.0002
     34 C          62.0027   81.6876   11.3250 C.ar    0  UNK0        0.0145
     35 C          63.3191   81.4019   10.6652 C.ar    0  UNK0        0.0589
     36 C          63.6696   79.9989   10.2671 C.3     0  UNK0        0.0521
     37 N          64.2850   82.5193   10.4034 N.ar    0  UNK0       -0.2542
     38 C          63.9345   83.9224   10.8016 C.ar    0  UNK0        0.0570
     39 C          64.5562   84.3732   10.5881 C.3     0  UNK0        0.0518
@<TRIPOS>BOND
     1    21    22    1
     2    22    19    1
     3    19    20    1
     4    19     1    1
     5     1     2    1
     6     2     3    2
     7     2     4   am
     8     4     5    1
     9     5    10    1
    10    10    11    1
    11    11    12    1
    12    12    13   ar
    13    13    14   ar
    14    14    15   ar
    15    15    16   ar
    16    16    17   ar
    17    17    18    1
    18     5     6    1
    19     6     7    2
    20     6     8   am
    21    23     8    1
    22    23    24    1
    23    24    25    2
    24    24    26   am
    25    26    27    1
    26    27    28    1
    27    28    29    1
    28    29    30    1
    29    30    31    1
    30    23    32    1
    31    32    33   ar
    32    33    34   ar
    33    34    35   ar
    34    35    36    1
    35    35    37   ar
    36    37    38   ar
    37    38    39    1
    38     1     8    1
    39    31    26    1
    40    38    32   ar
    41    18    10    1
    42    17    12   ar
    43     4     9    1
@<TRIPOS>MOLECULE
*****
 39 43 0 0 0
SMALL
GASTEIGER

@<TRIPOS>ATOM
      1 CA         64.7799   91.1426   14.1591 C.3     2  ILE2        0.1523
      2 C          63.5504   90.3525   14.4965 C.2     2  ILE2        0.2409
      3 O          63.1972   90.0907   15.9307 O.2     2  ILE2       -0.2733
      4 N          62.6739   89.8242   13.3998 N.am    1  UNK1       -0.2970
      5 C          63.0271   90.0860   11.9657 C.3     1  UNK1        0.1494
      6 C          64.2566   90.8761   11.6283 C.2     1  UNK1        0.2444
      7 O          64.6098   91.1379   10.1941 O.2     1  UNK1       -0.2731
      8 N          65.1331   91.4044   12.7250 N.am    2  ILE2       -0.2615
      9 H          61.8669   89.3057   13.6212 H       1  UNK1        0.1499
     10 C          62.1506   89.5577   10.8690 C.3     1  UNK1        0.0356
     11 C          61.9499   88.1129   10.5194 C.3     1  UNK1        0.0285
     12 C          60.9962   88.0437    9.3637 C.ar    1  UNK1       -0.0261
     13 C          60.4316   86.8851    8.5963 C.ar    1  UNK1       -0.0046
     14 C          59.4782   87.1287    7.4642 C.ar    1  UNK1       -0.0003
     15 C          59.0896   88.5308    7.0994 C.ar    1  UNK1       -0.0003
     16 C          59.6542   89.6893    7.8667 C.ar    1  UNK1       -0.0046
     17 C          60.6076   89.4458    8.9989 C.ar    1  UNK1       -0.0261
     18 C          61.3210   90.3815    9.9292 C.3     1  UNK1        0.0285
     19 CB         65.6564   91.6709   15.2558 C.3     2  ILE2        0.0272
     20 CG2        66.6112   91.2573   15.5921 C.3     2  ILE2        0.0022
     21 CD1        64.6134   92.7577   17.3726 C.3     2  ILE2        0.0001
     22 CG1        65.2463   92.8949   16.0196 C.3     2  ILE2        0.0021
     23 C          66.3627   92.1945   12.3875 C.3     0  UNK0        0.1764
     24 C          67.6834   91.8216   12.9931 C.2     0  UNK0        0.2483
     25 O          68.3031   90.9571   12.7394 O.2     0  UNK0       -0.2727
     26 N          68.2839   92.6778   14.0684 N.am    0  UNK0       -0.2728
     27 C          67.5637   93.9069   14.5381 C.3     0  UNK0        0.1255
     28 C          68.1642   94.7631   15.6134 C.3     0  UNK0        0.1636
     29 O          69.4849   94.3902   16.2190 O.3     0  UNK0       -0.3501
     30 C          70.2051   93.1612   15.7493 C.3     0  UNK0        0.1636
     31 C          69.6046   92.3049   14.6739 C.3     0  UNK0        0.1255
     32 C          66.2716   93.3574   11.4445 C.ar    0  UNK0        0.0181
     33 C          65.4808   94.5732   11.8272 C.ar    0  UNK0        0.0002
     34 C          65.3897   95.7361   10.8841 C.ar    0  UNK0        0.0145
     35 C          66.0894   95.6832    9.5584 C.ar    0  UNK0        0.0589
     36 C          65.9983   96.8461    8.6154 C.3     0  UNK0        0.0521
     37 N          66.8802   94.4675    9.1757 N.ar    0  UNK0       -0.2542
     38 C          66.9713   93.3046   10.1187 C.ar    0  UNK0        0.0570
     39 C          67.4243   92.7600    9.7530 C.3     0  UNK0        0.0518
@<TRIPOS>BOND
     1    21    22    1
     2    22    19    1
     3    19    20    1
     4    19     1    1
     5     1     2    1
     6     2     3    2
     7     2     4   am
     8     4     5    1
     9     5    10    1
    10    10    11    1
    11    11    12    1
    12    12    13   ar
    13    13    14   ar
    14    14    15   ar
    15    15    16   ar
    16    16    17   ar
    17    17    18    1
    18     5     6    1
    19     6     7    2
    20     6     8   am
    21    23     8    1
    22    23    24    1
    23    24    25    2
    24    24    26   am
    25    26    27    1
    26    27    28    1
    27    28    29    1
    28    29    30    1
    29    30    31    1
    30    23    32    1
    31    32    33   ar
    32    33    34   ar
    33    34    35   ar
    34    35    36    1
    35    35    37   ar
    36    37    38   ar
    37    38    39    1
    38     1     8    1
    39    31    26    1
    40    38    32   ar
    41    18    10    1
    42    17    12   ar
    43     4     9    1
