@<TRIPOS>MOLECULE
*****
 48 51 0 0 0
SMALL
GASTEIGER

@<TRIPOS>ATOM
      1 C          61.1233   88.7297    9.4501 C.3     1  UNL1        0.0965
      2 C          60.5976   89.9321    8.7234 C.3     1  UNL1        0.0746
      3 N          59.7537   89.7567    7.4958 N.3     1  UNL1       -0.3207
      4 H          60.3159   89.3408    6.7533 H       1  UNL1        0.1189
      5 H          59.4053   90.6653    7.1900 H       1  UNL1        0.1189
      6 N          61.4691   89.4947   11.9088 N.am    1  UNL1       -0.2770
      7 C          62.0162   88.9052   10.6426 C.2     1  UNL1        0.2270
      8 O          63.4560   88.4912   10.5689 O.2     1  UNL1       -0.2748
      9 C          60.0293   89.9087   11.9825 C.3     1  UNL1        0.0758
     10 C          58.9585   90.9329   11.7491 C.3     1  UNL1        0.0215
     11 C          58.6062   89.6016   12.3436 C.3     1  UNL1        0.0215
     12 C          62.3619   89.6702   13.1013 C.3     1  UNL1        0.1201
     13 C          65.3639   91.9882   14.2697 C.ar    1  UNL1       -0.0194
     14 C          64.2466   90.9883   14.3100 C.ar    1  UNL1       -0.0067
     15 C          63.4793   90.6702   13.0610 C.ar    1  UNL1        0.0004
     16 C          63.8295   91.3520   11.7716 C.ar    1  UNL1        0.0343
     17 C          64.9468   92.3519   11.7313 C.ar    1  UNL1        0.1381
     18 C          65.7140   92.6700   12.9803 C.ar    1  UNL1        0.0326
     19 C          66.1311   92.3064   15.5188 C.3     1  UNL1        0.0290
     20 C          67.3492   93.1789   15.4490 C.3     1  UNL1        0.0367
     21 C          68.7148   92.5592   15.4144 C.3     1  UNL1        0.1426
     22 C          68.8846   91.7091   12.9652 C.3     1  UNL1        0.1741
     23 O          69.4659   92.4713   14.1189 O.3     1  UNL1       -0.3511
     24 O          65.2970   93.0337   10.4418 O.3     1  UNL1       -0.4728
     25 C          66.1308   94.2805   10.4551 C.3     1  UNL1        0.2373
     26 C          67.1385   94.5204    9.3701 C.3     1  UNL1        0.1894
     27 O          68.5237   93.9586    9.4955 O.3     1  UNL1       -0.3471
     28 C          68.7476   92.4807    9.3714 C.3     1  UNL1        0.1743
     29 C          60.7562   87.3520    8.9844 C.3     1  UNL1        0.0368
     30 C          61.6153   86.1803    9.3575 C.ar    1  UNL1       -0.0217
     31 C          62.5340   85.5701    8.3410 C.ar    1  UNL1       -0.0046
     32 C          63.3931   84.3984    8.7141 C.ar    1  UNL1       -0.0046
     33 C          63.3335   83.8371   10.1038 C.ar    1  UNL1       -0.0221
     34 C          62.4147   84.4473   11.1203 C.ar    1  UNL1       -0.0046
     35 C          61.5556   85.6190   10.7472 C.ar    1  UNL1       -0.0046
     36 C          64.1925   82.6654   10.4769 C.3     1  UNL1        0.0302
     37 C          63.6309   81.5638   11.3260 C.3     1  UNL1        0.0520
     38 C          63.7901   81.6103   12.8168 C.3     1  UNL1        0.2058
     39 O          64.6552   82.6618   13.4462 O.3     1  UNL1       -0.4737
     40 C          64.0662   83.6252   14.4336 C.ar    1  UNL1        0.1594
     41 C          64.8557   84.8209   14.8773 C.ar    1  UNL1        0.0921
     42 CL         66.2342   85.0534   14.3334 Cl      1  UNL1       -0.0791
     43 C          64.2668   85.7843   15.8647 C.ar    1  UNL1        0.0103
     44 C          62.8883   85.5519   16.4086 C.ar    1  UNL1       -0.0200
     45 C          62.2993   86.5152   17.3960 C.3     1  UNL1        0.0311
     46 C          62.0987   84.3561   15.9649 C.ar    1  UNL1        0.0103
     47 C          62.6877   83.3927   14.9775 C.ar    1  UNL1        0.0921
     48 CL         61.8982   82.1970   14.5338 Cl      1  UNL1       -0.0791
@<TRIPOS>BOND
     1    22    23    1
     2    23    21    1
     3    21    20    1
     4    20    19    1
     5    19    13    1
     6    13    14   ar
     7    14    15   ar
     8    15    12    1
     9    12     6    1
    10     6     7   am
    11     7     8    2
    12     7     1    1
    13     1     2    1
    14     2     3    1
    15     1    29    1
    16    29    30    1
    17    30    31   ar
    18    31    32   ar
    19    32    33   ar
    20    33    36    1
    21    36    37    1
    22    37    38    1
    23    38    39    1
    24    39    40    1
    25    40    41   ar
    26    41    42    1
    27    41    43   ar
    28    43    44   ar
    29    44    45    1
    30    44    46   ar
    31    46    47   ar
    32    47    48    1
    33    33    34   ar
    34    34    35   ar
    35     6     9    1
    36     9    10    1
    37    10    11    1
    38    15    16   ar
    39    16    17   ar
    40    17    24    1
    41    24    25    1
    42    25    26    1
    43    26    27    1
    44    27    28    1
    45    17    18   ar
    46    18    13   ar
    47    35    30   ar
    48    11     9    1
    49    47    40   ar
    50     3     4    1
    51     3     5    1
@<TRIPOS>MOLECULE
*****
 48 51 0 0 0
SMALL
GASTEIGER

@<TRIPOS>ATOM
      1 C          60.8070   88.8665    9.2253 C.3     1  UNL1        0.0965
      2 C          59.7465   88.9986    8.1727 C.3     1  UNL1        0.0746
      3 N          59.1072   87.7712    7.5941 N.3     1  UNL1       -0.3207
      4 H          59.8029   87.2405    7.0699 H       1  UNL1        0.1189
      5 H          58.3479   88.0452    6.9705 H       1  UNL1        0.1189
      6 N          61.1944   86.5412   10.3175 N.am    1  UNL1       -0.2770
      7 C          60.6104   87.9217   10.3737 C.2     1  UNL1        0.2270
      8 O          59.8297   88.3574   11.5781 O.2     1  UNL1       -0.2748
      9 C          61.9751   86.1055    9.1130 C.3     1  UNL1        0.0758
     10 C          63.2913   85.8809    8.4296 C.3     1  UNL1        0.0215
     11 C          62.0110   85.5756    7.7102 C.3     1  UNL1        0.0215
     12 C          60.9978   85.5964   11.4658 C.3     1  UNL1        0.1201
     13 C          64.2373   85.0072   13.6812 C.ar    1  UNL1       -0.0194
     14 C          63.0534   85.6801   13.0525 C.ar    1  UNL1       -0.0067
     15 C          62.1818   84.9234   12.0945 C.ar    1  UNL1        0.0004
     16 C          62.4942   83.4937   11.7653 C.ar    1  UNL1        0.0343
     17 C          63.6782   82.8208   12.3940 C.ar    1  UNL1        0.1381
     18 C          64.5497   83.5775   13.3520 C.ar    1  UNL1        0.0326
     19 C          65.1089   85.7639   14.6392 C.3     1  UNL1        0.0290
     20 C          64.5645   86.9580   15.3656 C.3     1  UNL1        0.0367
     21 C          63.5170   86.7785   16.4242 C.3     1  UNL1        0.1426
     22 C          63.1123   89.3382   16.6096 C.3     1  UNL1        0.1741
     23 O          63.0271   87.9633   17.2031 O.3     1  UNL1       -0.3511
     24 O          63.9906   81.3911   12.0648 O.3     1  UNL1       -0.4728
     25 C          62.9463   80.3317   12.2570 C.3     1  UNL1        0.2373
     26 C          62.3251   80.1270   13.6070 C.3     1  UNL1        0.1894
     27 O          61.1801   80.9915   14.0445 O.3     1  UNL1       -0.3471
     28 C          59.8041   80.4074   14.1685 C.3     1  UNL1        0.1743
     29 C          62.0641   89.6793    9.1296 C.3     1  UNL1        0.0368
     30 C          62.7919   90.0847   10.3770 C.ar    1  UNL1       -0.0217
     31 C          62.8532   89.1486   11.5474 C.ar    1  UNL1       -0.0046
     32 C          63.5810   89.5541   12.7948 C.ar    1  UNL1       -0.0046
     33 C          64.2474   90.8957   12.8717 C.ar    1  UNL1       -0.0221
     34 C          64.1861   91.8318   11.7013 C.ar    1  UNL1       -0.0046
     35 C          63.4583   91.4263   10.4540 C.ar    1  UNL1       -0.0046
     36 C          64.9752   91.3011   14.1191 C.3     1  UNL1        0.0302
     37 C          66.4743   91.3511   14.1301 C.3     1  UNL1        0.0520
     38 C          67.1938   92.4408   13.3919 C.3     1  UNL1        0.2058
     39 O          67.5802   92.2452   11.9558 O.3     1  UNL1       -0.4737
     40 C          67.3112   93.3275   10.9526 C.ar    1  UNL1        0.1594
     41 C          66.6074   94.5831   11.3746 C.ar    1  UNL1        0.0921
     42 CL         66.1726   94.7565   12.7997 Cl      1  UNL1       -0.0791
     43 C          66.3385   95.6654   10.3714 C.ar    1  UNL1        0.0103
     44 C          66.7733   95.4921    8.9464 C.ar    1  UNL1       -0.0200
     45 C          66.5043   96.5744    7.9432 C.3     1  UNL1        0.0311
     46 C          67.4771   94.2364    8.5244 C.ar    1  UNL1        0.0103
     47 C          67.7460   93.1541    9.5275 C.ar    1  UNL1        0.0921
     48 CL         68.4498   91.8985    9.1055 Cl      1  UNL1       -0.0791
@<TRIPOS>BOND
     1    22    23    1
     2    23    21    1
     3    21    20    1
     4    20    19    1
     5    19    13    1
     6    13    14   ar
     7    14    15   ar
     8    15    12    1
     9    12     6    1
    10     6     7   am
    11     7     8    2
    12     7     1    1
    13     1     2    1
    14     2     3    1
    15     1    29    1
    16    29    30    1
    17    30    31   ar
    18    31    32   ar
    19    32    33   ar
    20    33    36    1
    21    36    37    1
    22    37    38    1
    23    38    39    1
    24    39    40    1
    25    40    41   ar
    26    41    42    1
    27    41    43   ar
    28    43    44   ar
    29    44    45    1
    30    44    46   ar
    31    46    47   ar
    32    47    48    1
    33    33    34   ar
    34    34    35   ar
    35     6     9    1
    36     9    10    1
    37    10    11    1
    38    15    16   ar
    39    16    17   ar
    40    17    24    1
    41    24    25    1
    42    25    26    1
    43    26    27    1
    44    27    28    1
    45    17    18   ar
    46    18    13   ar
    47    35    30   ar
    48    11     9    1
    49    47    40   ar
    50     3     4    1
    51     3     5    1
@<TRIPOS>MOLECULE
*****
 48 51 0 0 0
SMALL
GASTEIGER

@<TRIPOS>ATOM
      1 C          61.0151   88.7653    9.4136 C.3     1  UNL1        0.0965
      2 C          60.4476   89.9312    8.6593 C.3     1  UNL1        0.0746
      3 N          59.7224   89.7062    7.3657 N.3     1  UNL1       -0.3207
      4 H          60.3757   89.3524    6.6668 H       1  UNL1        0.1189
      5 H          59.3227   90.5871    7.0423 H       1  UNL1        0.1189
      6 N          61.4513   89.5964   11.8362 N.am    1  UNL1       -0.2770
      7 C          61.9576   88.9989   10.5569 C.2     1  UNL1        0.2270
      8 O          63.4064   88.6348   10.4209 O.2     1  UNL1       -0.2748
      9 C          60.0025   89.9605   11.9722 C.3     1  UNL1        0.0758
     10 C          58.6206   89.6329   12.4548 C.3     1  UNL1        0.0215
     11 C          58.8751   90.9185   11.7252 C.3     1  UNL1        0.0215
     12 C          62.3938   89.8300   12.9795 C.3     1  UNL1        0.1201
     13 C          64.9870   92.3839   11.3975 C.ar    1  UNL1       -0.0194
     14 C          63.7396   91.5775   11.6066 C.ar    1  UNL1       -0.0067
     15 C          63.6413   90.6364   12.7704 C.ar    1  UNL1        0.0004
     16 C          64.7903   90.5016   13.7251 C.ar    1  UNL1        0.0343
     17 C          66.0376   91.3080   13.5160 C.ar    1  UNL1        0.1381
     18 C          66.1360   92.2491   12.3522 C.ar    1  UNL1        0.0326
     19 C          65.0853   93.3251   10.2336 C.3     1  UNL1        0.0290
     20 C          65.8657   94.5995   10.3635 C.3     1  UNL1        0.0367
     21 C          67.2097   94.7259    9.7095 C.3     1  UNL1        0.1426
     22 C          68.4190   92.5555    8.9501 C.3     1  UNL1        0.1741
     23 O          68.2555   93.6746    9.9354 O.3     1  UNL1       -0.3511
     24 O          67.1868   91.1732   14.4708 O.3     1  UNL1       -0.4728
     25 C          68.0315   92.3678   14.8011 C.3     1  UNL1        0.2373
     26 C          67.5655   93.3544   15.8305 C.3     1  UNL1        0.1894
     27 O          66.6523   92.9112   16.9348 O.3     1  UNL1       -0.3471
     28 C          65.2204   92.5791   16.6360 C.3     1  UNL1        0.1743
     29 C          60.6401   87.3661    9.0245 C.3     1  UNL1        0.0368
     30 C          61.5498   86.2233    9.3660 C.ar    1  UNL1       -0.0217
     31 C          62.4580   85.6490    8.3195 C.ar    1  UNL1       -0.0046
     32 C          63.3676   84.5063    8.6610 C.ar    1  UNL1       -0.0046
     33 C          63.3691   83.9379   10.0490 C.ar    1  UNL1       -0.0221
     34 C          62.4610   84.5121   11.0956 C.ar    1  UNL1       -0.0046
     35 C          61.5513   85.6549   10.7541 C.ar    1  UNL1       -0.0046
     36 C          64.2788   82.7951   10.3906 C.3     1  UNL1        0.0302
     37 C          63.7744   81.6606   11.2322 C.3     1  UNL1        0.0520
     38 C          63.7673   81.7812   12.7273 C.3     1  UNL1        0.2058
     39 O          64.6423   82.7958   13.4020 O.3     1  UNL1       -0.4737
     40 C          64.0594   83.7299   14.4206 C.ar    1  UNL1        0.1594
     41 C          62.6763   83.4931   14.9507 C.ar    1  UNL1        0.0921
     42 CL         61.8761   82.3222   14.4622 Cl      1  UNL1       -0.0791
     43 C          62.0934   84.4272   15.9694 C.ar    1  UNL1        0.0103
     44 C          62.8935   85.5981   16.4579 C.ar    1  UNL1       -0.0200
     45 C          62.3106   86.5322   17.4766 C.3     1  UNL1        0.0311
     46 C          64.2767   85.8350   15.9278 C.ar    1  UNL1        0.0103
     47 C          64.8596   84.9009   14.9092 C.ar    1  UNL1        0.0921
     48 CL         66.2426   85.1376   14.3791 Cl      1  UNL1       -0.0791
@<TRIPOS>BOND
     1    22    23    1
     2    23    21    1
     3    21    20    1
     4    20    19    1
     5    19    13    1
     6    13    14   ar
     7    14    15   ar
     8    15    12    1
     9    12     6    1
    10     6     7   am
    11     7     8    2
    12     7     1    1
    13     1     2    1
    14     2     3    1
    15     1    29    1
    16    29    30    1
    17    30    31   ar
    18    31    32   ar
    19    32    33   ar
    20    33    36    1
    21    36    37    1
    22    37    38    1
    23    38    39    1
    24    39    40    1
    25    40    41   ar
    26    41    42    1
    27    41    43   ar
    28    43    44   ar
    29    44    45    1
    30    44    46   ar
    31    46    47   ar
    32    47    48    1
    33    33    34   ar
    34    34    35   ar
    35     6     9    1
    36     9    10    1
    37    10    11    1
    38    15    16   ar
    39    16    17   ar
    40    17    24    1
    41    24    25    1
    42    25    26    1
    43    26    27    1
    44    27    28    1
    45    17    18   ar
    46    18    13   ar
    47    35    30   ar
    48    11     9    1
    49    47    40   ar
    50     3     4    1
    51     3     5    1
@<TRIPOS>MOLECULE
*****
 48 51 0 0 0
SMALL
GASTEIGER

@<TRIPOS>ATOM
      1 C          65.4140   92.0539   13.5076 C.3     1  UNL1        0.0965
      2 C          65.9769   93.4324   13.6893 C.3     1  UNL1        0.0746
      3 N          66.8527   93.7354   14.8687 N.3     1  UNL1       -0.3207
      4 H          66.3061   93.6598   15.7265 H       1  UNL1        0.1189
      5 H          67.2223   94.6823   14.7834 H       1  UNL1        0.1189
      6 N          64.5486   92.0004   11.0585 N.am    1  UNL1       -0.2770
      7 C          64.3029   91.8206   12.5273 C.2     1  UNL1        0.2270
      8 O          62.9461   91.4077   13.0158 O.2     1  UNL1       -0.2748
      9 C          65.9053   92.4133   10.5700 C.3     1  UNL1        0.0758
     10 C          67.3498   92.0935   10.3228 C.3     1  UNL1        0.0215
     11 C          66.8108   93.4483    9.9711 C.3     1  UNL1        0.0215
     12 C          63.4374   91.7671   10.0782 C.3     1  UNL1        0.1201
     13 C          62.2863   88.1003   11.0678 C.ar    1  UNL1       -0.0194
     14 C          63.0947   89.3619   10.9988 C.ar    1  UNL1       -0.0067
     15 C          62.6290   90.5055   10.1471 C.ar    1  UNL1        0.0004
     16 C          61.3550   90.3873    9.3643 C.ar    1  UNL1        0.0343
     17 C          60.5466   89.1257    9.4332 C.ar    1  UNL1        0.1381
     18 C          61.0123   87.9822   10.2849 C.ar    1  UNL1        0.0326
     19 C          62.7520   86.9567   11.9195 C.3     1  UNL1        0.0290
     20 C          62.1708   85.5883   11.7208 C.3     1  UNL1        0.0367
     21 C          62.0137   85.0340   10.3359 C.3     1  UNL1        0.1426
     22 C          62.8389   84.9429    7.8740 C.3     1  UNL1        0.1741
     23 O          63.1035   85.2259    9.3231 O.3     1  UNL1       -0.3511
     24 O          59.2725   89.0075    8.6503 O.3     1  UNL1       -0.4728
     25 C          59.3207   88.7405    7.1751 C.3     1  UNL1        0.2373
     26 C          59.4501   89.8817    6.2101 C.3     1  UNL1        0.1894
     27 O          58.2253   90.4663    5.5715 O.3     1  UNL1       -0.3471
     28 C          58.3236   91.7428    4.7899 C.3     1  UNL1        0.1743
     29 C          65.9624   90.9086   14.3062 C.3     1  UNL1        0.0368
     30 C          65.0278   89.9649   15.0033 C.ar    1  UNL1       -0.0217
     31 C          64.1083   90.4739   16.0735 C.ar    1  UNL1       -0.0046
     32 C          63.1737   89.5301   16.7706 C.ar    1  UNL1       -0.0046
     33 C          63.1586   88.0774   16.3974 C.ar    1  UNL1       -0.0221
     34 C          64.0780   87.5684   15.3271 C.ar    1  UNL1       -0.0046
     35 C          65.0126   88.5122   14.6300 C.ar    1  UNL1       -0.0046
     36 C          62.2240   87.1336   17.0944 C.3     1  UNL1        0.0302
     37 C          62.5393   85.6681   17.1470 C.3     1  UNL1        0.0520
     38 C          62.1271   84.7713   16.0175 C.3     1  UNL1        0.2058
     39 O          62.8832   83.5031   15.7526 O.3     1  UNL1       -0.4737
     40 C          63.1990   83.0987   14.3431 C.ar    1  UNL1        0.1594
     41 C          64.3884   83.6861   13.6429 C.ar    1  UNL1        0.0921
     42 CL         65.2621   84.6779   14.3522 Cl      1  UNL1       -0.0791
     43 C          64.7042   83.2817   12.2334 C.ar    1  UNL1        0.0103
     44 C          63.8306   82.2900   11.5240 C.ar    1  UNL1       -0.0200
     45 C          64.1463   81.8856   10.1145 C.3     1  UNL1        0.0311
     46 C          62.6411   81.7026   12.2242 C.ar    1  UNL1        0.0103
     47 C          62.3253   82.1069   13.6337 C.ar    1  UNL1        0.0921
     48 CL         61.1359   81.5196   14.3339 Cl      1  UNL1       -0.0791
@<TRIPOS>BOND
     1    22    23    1
     2    23    21    1
     3    21    20    1
     4    20    19    1
     5    19    13    1
     6    13    14   ar
     7    14    15   ar
     8    15    12    1
     9    12     6    1
    10     6     7   am
    11     7     8    2
    12     7     1    1
    13     1     2    1
    14     2     3    1
    15     1    29    1
    16    29    30    1
    17    30    31   ar
    18    31    32   ar
    19    32    33   ar
    20    33    36    1
    21    36    37    1
    22    37    38    1
    23    38    39    1
    24    39    40    1
    25    40    41   ar
    26    41    42    1
    27    41    43   ar
    28    43    44   ar
    29    44    45    1
    30    44    46   ar
    31    46    47   ar
    32    47    48    1
    33    33    34   ar
    34    34    35   ar
    35     6     9    1
    36     9    10    1
    37    10    11    1
    38    15    16   ar
    39    16    17   ar
    40    17    24    1
    41    24    25    1
    42    25    26    1
    43    26    27    1
    44    27    28    1
    45    17    18   ar
    46    18    13   ar
    47    35    30   ar
    48    11     9    1
    49    47    40   ar
    50     3     4    1
    51     3     5    1
@<TRIPOS>MOLECULE
*****
 48 51 0 0 0
SMALL
GASTEIGER

@<TRIPOS>ATOM
      1 C          60.9122   88.7599    9.3292 C.3     1  UNL1        0.0965
      2 C          59.8097   89.0538    8.3554 C.3     1  UNL1        0.0746
      3 N          59.0992   87.9278    7.6647 N.3     1  UNL1       -0.3207
      4 H          59.7496   87.4443    7.0453 H       1  UNL1        0.1189
      5 H          58.3225   88.3001    7.1183 H       1  UNL1        0.1189
      6 N          61.2487   86.3411   10.2159 N.am    1  UNL1       -0.2770
      7 C          60.7116   87.7295   10.4006 C.2     1  UNL1        0.2270
      8 O          59.9738   88.0873   11.6566 O.2     1  UNL1       -0.2748
      9 C          61.9864   85.9833    8.9599 C.3     1  UNL1        0.0758
     10 C          61.9727   85.5971    7.5105 C.3     1  UNL1        0.0215
     11 C          63.2779   85.7496    8.2337 C.3     1  UNL1        0.0215
     12 C          61.0480   85.3107   11.2873 C.3     1  UNL1        0.1201
     13 C          63.8175   82.9229   12.8297 C.ar    1  UNL1       -0.0194
     14 C          62.6487   83.3996   12.0193 C.ar    1  UNL1       -0.0067
     15 C          62.2168   84.8340   12.0978 C.ar    1  UNL1        0.0004
     16 C          62.9536   85.7916   12.9866 C.ar    1  UNL1        0.0343
     17 C          64.1224   85.3149   13.7970 C.ar    1  UNL1        0.1381
     18 C          64.5543   83.8805   13.7185 C.ar    1  UNL1        0.0326
     19 C          64.2494   81.4886   12.7513 C.3     1  UNL1        0.0290
     20 C          63.6287   80.4678   13.6582 C.3     1  UNL1        0.0367
     21 C          62.1986   80.0604   13.4614 C.3     1  UNL1        0.1426
     22 C          59.7207   80.3551   14.1850 C.3     1  UNL1        0.1741
     23 O          61.0927   80.9277   13.9859 O.3     1  UNL1       -0.3511
     24 O          64.8593   86.2725   14.6858 O.3     1  UNL1       -0.4728
     25 C          64.6006   86.2749   16.1633 C.3     1  UNL1        0.2373
     26 C          63.1927   86.2243   16.6784 C.3     1  UNL1        0.1894
     27 O          62.3797   87.4819   16.7639 O.3     1  UNL1       -0.3471
     28 C          63.0647   88.8145   16.8324 C.3     1  UNL1        0.1743
     29 C          62.2153   89.4964    9.2315 C.3     1  UNL1        0.0368
     30 C          62.9100   89.9599   10.4775 C.ar    1  UNL1       -0.0217
     31 C          63.0286   89.0401   11.6564 C.ar    1  UNL1       -0.0046
     32 C          63.7233   89.5036   12.9024 C.ar    1  UNL1       -0.0046
     33 C          64.2996   90.8868   12.9695 C.ar    1  UNL1       -0.0221
     34 C          64.1810   91.8066   11.7906 C.ar    1  UNL1       -0.0046
     35 C          63.4863   91.3431   10.5446 C.ar    1  UNL1       -0.0046
     36 C          64.9944   91.3503   14.2155 C.3     1  UNL1        0.0302
     37 C          66.4924   91.4100   14.2608 C.3     1  UNL1        0.0520
     38 C          67.2285   92.4166   13.4272 C.3     1  UNL1        0.2058
     39 O          67.4450   92.1644   11.9644 O.3     1  UNL1       -0.4737
     40 C          67.3170   93.2909   10.9822 C.ar    1  UNL1        0.1594
     41 C          66.6656   94.5769   11.3966 C.ar    1  UNL1        0.0921
     42 CL         66.1422   94.7366   12.7933 Cl      1  UNL1       -0.0791
     43 C          66.5376   95.7033   10.4144 C.ar    1  UNL1        0.0103
     44 C          67.0610   95.5437    9.0177 C.ar    1  UNL1       -0.0200
     45 C          66.9329   96.6702    8.0355 C.3     1  UNL1        0.0311
     46 C          67.7124   94.2576    8.6033 C.ar    1  UNL1        0.0103
     47 C          67.8404   93.1312    9.5855 C.ar    1  UNL1        0.0921
     48 CL         68.4918   91.8452    9.1711 Cl      1  UNL1       -0.0791
@<TRIPOS>BOND
     1    22    23    1
     2    23    21    1
     3    21    20    1
     4    20    19    1
     5    19    13    1
     6    13    14   ar
     7    14    15   ar
     8    15    12    1
     9    12     6    1
    10     6     7   am
    11     7     8    2
    12     7     1    1
    13     1     2    1
    14     2     3    1
    15     1    29    1
    16    29    30    1
    17    30    31   ar
    18    31    32   ar
    19    32    33   ar
    20    33    36    1
    21    36    37    1
    22    37    38    1
    23    38    39    1
    24    39    40    1
    25    40    41   ar
    26    41    42    1
    27    41    43   ar
    28    43    44   ar
    29    44    45    1
    30    44    46   ar
    31    46    47   ar
    32    47    48    1
    33    33    34   ar
    34    34    35   ar
    35     6     9    1
    36     9    10    1
    37    10    11    1
    38    15    16   ar
    39    16    17   ar
    40    17    24    1
    41    24    25    1
    42    25    26    1
    43    26    27    1
    44    27    28    1
    45    17    18   ar
    46    18    13   ar
    47    35    30   ar
    48    11     9    1
    49    47    40   ar
    50     3     4    1
    51     3     5    1
@<TRIPOS>MOLECULE
*****
 48 51 0 0 0
SMALL
GASTEIGER

@<TRIPOS>ATOM
      1 C          65.5339   92.1175   13.5225 C.3     1  UNL1        0.0965
      2 C          66.1322   93.4813   13.7024 C.3     1  UNL1        0.0746
      3 N          66.9077   93.8020   14.9457 N.3     1  UNL1       -0.3207
      4 H          66.2821   93.7825   15.7511 H       1  UNL1        0.1189
      5 H          67.3209   94.7305   14.8586 H       1  UNL1        0.1189
      6 N          64.6736   92.0658   11.0715 N.am    1  UNL1       -0.2770
      7 C          64.4180   91.9115   12.5416 C.2     1  UNL1        0.2270
      8 O          63.0465   91.5512   13.0306 O.2     1  UNL1       -0.2748
      9 C          66.0451   92.4261   10.5825 C.3     1  UNL1        0.0758
     10 C          66.9933   93.4302    9.9970 C.3     1  UNL1        0.0215
     11 C          67.4724   92.0463   10.3211 C.3     1  UNL1        0.0215
     12 C          63.5577   91.8598   10.0906 C.3     1  UNL1        0.1201
     13 C          60.7008   89.2124    9.3294 C.ar    1  UNL1       -0.0194
     14 C          61.5120   90.4735    9.2886 C.ar    1  UNL1       -0.0067
     15 C          62.7465   90.5987   10.1314 C.ar    1  UNL1        0.0004
     16 C          63.1698   89.4629   11.0150 C.ar    1  UNL1        0.0343
     17 C          62.3586   88.2019   11.0558 C.ar    1  UNL1        0.1381
     18 C          61.1241   88.0767   10.2130 C.ar    1  UNL1        0.0326
     19 C          59.4663   89.0872    8.4866 C.3     1  UNL1        0.0290
     20 C          59.5869   88.8789    7.0061 C.3     1  UNL1        0.0367
     21 C          58.9511   89.8516    6.0576 C.3     1  UNL1        0.1426
     22 C          59.0995   92.0006    4.6050 C.3     1  UNL1        0.1741
     23 O          59.7485   91.0007    5.5154 O.3     1  UNL1       -0.3511
     24 O          62.7819   87.0660   11.9394 O.3     1  UNL1       -0.4728
     25 C          62.0296   85.7688   11.9054 C.3     1  UNL1        0.2373
     26 C          62.0824   84.9029   10.6816 C.3     1  UNL1        0.1894
     27 O          63.0662   85.2057    9.5906 O.3     1  UNL1       -0.3471
     28 C          62.6068   85.2745    8.1644 C.3     1  UNL1        0.1743
     29 C          66.0515   90.9598   14.3236 C.3     1  UNL1        0.0368
     30 C          65.0913   90.0239   14.9960 C.ar    1  UNL1       -0.0217
     31 C          64.1947   90.5266   16.0884 C.ar    1  UNL1       -0.0046
     32 C          63.2345   89.5907   16.7607 C.ar    1  UNL1       -0.0046
     33 C          63.1708   88.1522   16.3406 C.ar    1  UNL1       -0.0221
     34 C          64.0673   87.6495   15.2482 C.ar    1  UNL1       -0.0046
     35 C          65.0276   88.5854   14.5758 C.ar    1  UNL1       -0.0046
     36 C          62.2105   87.2163   17.0129 C.3     1  UNL1        0.0302
     37 C          62.5368   85.7561   17.1198 C.3     1  UNL1        0.0520
     38 C          62.1281   84.8143   16.0263 C.3     1  UNL1        0.2058
     39 O          62.9122   83.5582   15.7862 O.3     1  UNL1       -0.4737
     40 C          63.2216   83.1236   14.3843 C.ar    1  UNL1        0.1594
     41 C          64.4153   83.6858   13.6710 C.ar    1  UNL1        0.0921
     42 CL         65.2998   84.6826   14.3596 Cl      1  UNL1       -0.0791
     43 C          64.7247   83.2512   12.2691 C.ar    1  UNL1        0.0103
     44 C          63.8404   82.2544   11.5804 C.ar    1  UNL1       -0.0200
     45 C          64.1498   81.8198   10.1785 C.3     1  UNL1        0.0311
     46 C          62.6465   81.6921   12.2937 C.ar    1  UNL1        0.0103
     47 C          62.3371   82.1267   13.6957 C.ar    1  UNL1        0.0921
     48 CL         61.1434   81.5646   14.4090 Cl      1  UNL1       -0.0791
@<TRIPOS>BOND
     1    22    23    1
     2    23    21    1
     3    21    20    1
     4    20    19    1
     5    19    13    1
     6    13    14   ar
     7    14    15   ar
     8    15    12    1
     9    12     6    1
    10     6     7   am
    11     7     8    2
    12     7     1    1
    13     1     2    1
    14     2     3    1
    15     1    29    1
    16    29    30    1
    17    30    31   ar
    18    31    32   ar
    19    32    33   ar
    20    33    36    1
    21    36    37    1
    22    37    38    1
    23    38    39    1
    24    39    40    1
    25    40    41   ar
    26    41    42    1
    27    41    43   ar
    28    43    44   ar
    29    44    45    1
    30    44    46   ar
    31    46    47   ar
    32    47    48    1
    33    33    34   ar
    34    34    35   ar
    35     6     9    1
    36     9    10    1
    37    10    11    1
    38    15    16   ar
    39    16    17   ar
    40    17    24    1
    41    24    25    1
    42    25    26    1
    43    26    27    1
    44    27    28    1
    45    17    18   ar
    46    18    13   ar
    47    35    30   ar
    48    11     9    1
    49    47    40   ar
    50     3     4    1
    51     3     5    1
@<TRIPOS>MOLECULE
*****
 48 51 0 0 0
SMALL
GASTEIGER

@<TRIPOS>ATOM
      1 C          60.3839   88.4681    9.1783 C.3     1  UNL1        0.0965
      2 C          59.4963   88.7093    7.9934 C.3     1  UNL1        0.0746
      3 N          58.5935   87.6185    7.4983 N.3     1  UNL1       -0.3207
      4 H          59.1568   86.8492    7.1359 H       1  UNL1        0.1189
      5 H          57.9966   87.9821    6.7554 H       1  UNL1        0.1189
      6 N          61.2327   90.4900   10.5718 N.am    1  UNL1       -0.2770
      7 C          61.4665   89.4498    9.5166 C.2     1  UNL1        0.2270
      8 O          62.7827   89.3914    8.7997 O.2     1  UNL1       -0.2748
      9 C          59.9165   90.5484   11.2888 C.3     1  UNL1        0.0758
     10 C          58.6796   91.3045   11.6743 C.3     1  UNL1        0.0215
     11 C          58.8734   89.8936   12.1450 C.3     1  UNL1        0.0215
     12 C          62.3152   91.4717   10.9101 C.3     1  UNL1        0.1201
     13 C          65.6379   91.5546   13.0787 C.ar    1  UNL1       -0.0194
     14 C          64.6249   91.8890   12.0243 C.ar    1  UNL1       -0.0067
     15 C          63.3283   91.1372   11.9646 C.ar    1  UNL1        0.0004
     16 C          63.0447   90.0509   12.9593 C.ar    1  UNL1        0.0343
     17 C          64.0578   89.7164   14.0137 C.ar    1  UNL1        0.1381
     18 C          65.3544   90.4683   14.0734 C.ar    1  UNL1        0.0326
     19 C          66.9345   92.3064   13.1384 C.3     1  UNL1        0.0290
     20 C          68.0328   91.8367   14.0457 C.3     1  UNL1        0.0367
     21 C          67.9514   92.0995   15.5202 C.3     1  UNL1        0.1426
     22 C          69.1629   94.3179   16.1212 C.3     1  UNL1        0.1741
     23 O          67.9026   93.5098   16.0291 O.3     1  UNL1       -0.3511
     24 O          63.7743   88.6301   15.0085 O.3     1  UNL1       -0.4728
     25 C          63.0190   88.9431   16.2661 C.3     1  UNL1        0.2373
     26 C          63.4227   90.1146   17.1116 C.3     1  UNL1        0.1894
     27 O          63.3991   91.4992   16.5351 O.3     1  UNL1       -0.3471
     28 C          64.4854   92.4740   16.8807 C.3     1  UNL1        0.1743
     29 C          60.1890   87.2454   10.0250 C.3     1  UNL1        0.0368
     30 C          61.2562   86.1926   10.0790 C.ar    1  UNL1       -0.0217
     31 C          61.9613   85.7743    8.8230 C.ar    1  UNL1       -0.0046
     32 C          63.0284   84.7215    8.8770 C.ar    1  UNL1       -0.0046
     33 C          63.3905   84.0872   10.1872 C.ar    1  UNL1       -0.0221
     34 C          62.6853   84.5055   11.4432 C.ar    1  UNL1       -0.0046
     35 C          61.6182   85.5583   11.3891 C.ar    1  UNL1       -0.0046
     36 C          64.4576   83.0344   10.2412 C.3     1  UNL1        0.0302
     37 C          64.1371   81.6681   10.7706 C.3     1  UNL1        0.0520
     38 C          63.7137   81.4976   12.1995 C.3     1  UNL1        0.2058
     39 O          64.5434   82.0847   13.3027 O.3     1  UNL1       -0.4737
     40 C          63.9347   83.0699   14.2560 C.ar    1  UNL1        0.1594
     41 C          64.7092   84.2837   14.6762 C.ar    1  UNL1        0.0921
     42 CL         66.0926   84.5124   14.1431 Cl      1  UNL1       -0.0791
     43 C          64.1005   85.2689   15.6296 C.ar    1  UNL1        0.0103
     44 C          62.7172   85.0403   16.1627 C.ar    1  UNL1       -0.0200
     45 C          62.1085   86.0255   17.1160 C.3     1  UNL1        0.0311
     46 C          61.9426   83.8264   15.7425 C.ar    1  UNL1        0.0103
     47 C          62.5514   82.8412   14.7891 C.ar    1  UNL1        0.0921
     48 CL         61.7768   81.6273   14.3689 Cl      1  UNL1       -0.0791
@<TRIPOS>BOND
     1    22    23    1
     2    23    21    1
     3    21    20    1
     4    20    19    1
     5    19    13    1
     6    13    14   ar
     7    14    15   ar
     8    15    12    1
     9    12     6    1
    10     6     7   am
    11     7     8    2
    12     7     1    1
    13     1     2    1
    14     2     3    1
    15     1    29    1
    16    29    30    1
    17    30    31   ar
    18    31    32   ar
    19    32    33   ar
    20    33    36    1
    21    36    37    1
    22    37    38    1
    23    38    39    1
    24    39    40    1
    25    40    41   ar
    26    41    42    1
    27    41    43   ar
    28    43    44   ar
    29    44    45    1
    30    44    46   ar
    31    46    47   ar
    32    47    48    1
    33    33    34   ar
    34    34    35   ar
    35     6     9    1
    36     9    10    1
    37    10    11    1
    38    15    16   ar
    39    16    17   ar
    40    17    24    1
    41    24    25    1
    42    25    26    1
    43    26    27    1
    44    27    28    1
    45    17    18   ar
    46    18    13   ar
    47    35    30   ar
    48    11     9    1
    49    47    40   ar
    50     3     4    1
    51     3     5    1
@<TRIPOS>MOLECULE
*****
 48 51 0 0 0
SMALL
GASTEIGER

@<TRIPOS>ATOM
      1 C          60.3077   88.4232    9.1815 C.3     1  UNL1        0.0965
      2 C          59.3754   88.5703    8.0156 C.3     1  UNL1        0.0746
      3 N          58.6058   87.3836    7.5163 N.3     1  UNL1       -0.3207
      4 H          59.2533   86.6959    7.1314 H       1  UNL1        0.1189
      5 H          57.9548   87.6816    6.7898 H       1  UNL1        0.1189
      6 N          61.1720   90.4769   10.5177 N.am    1  UNL1       -0.2770
      7 C          61.3634   89.4587    9.4328 C.2     1  UNL1        0.2270
      8 O          62.6104   89.4762    8.5994 O.2     1  UNL1       -0.2748
      9 C          59.9250   90.4595   11.3511 C.3     1  UNL1        0.0758
     10 C          58.6246   91.0876   11.7564 C.3     1  UNL1        0.0215
     11 C          59.0656   89.8012   12.3893 C.3     1  UNL1        0.0215
     12 C          62.2278   91.5124   10.7691 C.3     1  UNL1        0.1201
     13 C          64.2114   89.8783   13.7931 C.ar    1  UNL1       -0.0194
     14 C          63.1497   90.1245   12.7626 C.ar    1  UNL1       -0.0067
     15 C          63.2895   91.2662   11.7997 C.ar    1  UNL1        0.0004
     16 C          64.4911   92.1615   11.8673 C.ar    1  UNL1        0.0343
     17 C          65.5528   91.9152   12.8978 C.ar    1  UNL1        0.1381
     18 C          65.4130   90.7736   13.8607 C.ar    1  UNL1        0.0326
     19 C          64.0716   88.7367   14.7560 C.3     1  UNL1        0.0290
     20 C          63.1787   88.8709   15.9538 C.3     1  UNL1        0.0367
     21 C          63.4392   89.9461   16.9667 C.3     1  UNL1        0.1426
     22 C          64.4539   92.3318   16.7971 C.3     1  UNL1        0.1741
     23 O          63.3075   91.3893   16.5794 O.3     1  UNL1       -0.3511
     24 O          66.7544   92.8105   12.9655 O.3     1  UNL1       -0.4728
     25 C          66.6223   94.2690   12.6409 C.3     1  UNL1        0.2373
     26 C          66.2989   94.6994   11.2407 C.3     1  UNL1        0.1894
     27 O          67.4055   95.0154   10.2787 O.3     1  UNL1       -0.3471
     28 C          67.8928   93.9652    9.3250 C.3     1  UNL1        0.1743
     29 C          60.1843   87.2406   10.0959 C.3     1  UNL1        0.0368
     30 C          61.2652   86.2012   10.1277 C.ar    1  UNL1       -0.0217
     31 C          61.9766   85.8199    8.8634 C.ar    1  UNL1       -0.0046
     32 C          63.0575   84.7804    8.8953 C.ar    1  UNL1       -0.0046
     33 C          63.4272   84.1222   10.1915 C.ar    1  UNL1       -0.0221
     34 C          62.7158   84.5035   11.4558 C.ar    1  UNL1       -0.0046
     35 C          61.6349   85.5430   11.4239 C.ar    1  UNL1       -0.0046
     36 C          64.5081   83.0827   10.2233 C.3     1  UNL1        0.0302
     37 C          64.2018   81.6968   10.7085 C.3     1  UNL1        0.0520
     38 C          63.6355   81.4911   12.0822 C.3     1  UNL1        0.2058
     39 O          64.4177   81.9207   13.2879 O.3     1  UNL1       -0.4737
     40 C          63.8469   82.9410   14.2277 C.ar    1  UNL1        0.1594
     41 C          62.4735   82.7489   14.7993 C.ar    1  UNL1        0.0921
     42 CL         61.6707   81.5364   14.4311 Cl      1  UNL1       -0.0791
     43 C          61.9028   83.7693   15.7390 C.ar    1  UNL1        0.0103
     44 C          62.7055   84.9818   16.1072 C.ar    1  UNL1       -0.0200
     45 C          62.1347   86.0021   17.0469 C.3     1  UNL1        0.0311
     46 C          64.0790   85.1739   15.5356 C.ar    1  UNL1        0.0103
     47 C          64.6497   84.1536   14.5958 C.ar    1  UNL1        0.0921
     48 CL         66.0231   84.3457   14.0242 Cl      1  UNL1       -0.0791
@<TRIPOS>BOND
     1    22    23    1
     2    23    21    1
     3    21    20    1
     4    20    19    1
     5    19    13    1
     6    13    14   ar
     7    14    15   ar
     8    15    12    1
     9    12     6    1
    10     6     7   am
    11     7     8    2
    12     7     1    1
    13     1     2    1
    14     2     3    1
    15     1    29    1
    16    29    30    1
    17    30    31   ar
    18    31    32   ar
    19    32    33   ar
    20    33    36    1
    21    36    37    1
    22    37    38    1
    23    38    39    1
    24    39    40    1
    25    40    41   ar
    26    41    42    1
    27    41    43   ar
    28    43    44   ar
    29    44    45    1
    30    44    46   ar
    31    46    47   ar
    32    47    48    1
    33    33    34   ar
    34    34    35   ar
    35     6     9    1
    36     9    10    1
    37    10    11    1
    38    15    16   ar
    39    16    17   ar
    40    17    24    1
    41    24    25    1
    42    25    26    1
    43    26    27    1
    44    27    28    1
    45    17    18   ar
    46    18    13   ar
    47    35    30   ar
    48    11     9    1
    49    47    40   ar
    50     3     4    1
    51     3     5    1
@<TRIPOS>MOLECULE
*****
 48 51 0 0 0
SMALL
GASTEIGER

@<TRIPOS>ATOM
      1 C          60.3512   88.5082    9.1764 C.3     1  UNL1        0.0965
      2 C          59.4362   88.7298    8.0085 C.3     1  UNL1        0.0746
      3 N          58.6626   87.5806    7.4332 N.3     1  UNL1       -0.3207
      4 H          59.3090   86.9092    7.0187 H       1  UNL1        0.1189
      5 H          58.0244   87.9254    6.7162 H       1  UNL1        0.1189
      6 N          61.2436   90.5098   10.5719 N.am    1  UNL1       -0.2770
      7 C          61.4348   89.5003    9.4790 C.2     1  UNL1        0.2270
      8 O          62.7095   89.4829    8.6887 O.2     1  UNL1       -0.2748
      9 C          59.9688   90.5271   11.3622 C.3     1  UNL1        0.0758
     10 C          58.6621   91.1787   11.7057 C.3     1  UNL1        0.0215
     11 C          59.0675   89.9056   12.3876 C.3     1  UNL1        0.0215
     12 C          62.3272   91.5019   10.8745 C.3     1  UNL1        0.1201
     13 C          64.1587   89.7807   13.9459 C.ar    1  UNL1       -0.0194
     14 C          63.1195   90.0973   12.9116 C.ar    1  UNL1       -0.0067
     15 C          63.3664   91.1852   11.9089 C.ar    1  UNL1        0.0004
     16 C          64.6525   91.9565   11.9404 C.ar    1  UNL1        0.0343
     17 C          65.6917   91.6399   12.9747 C.ar    1  UNL1        0.1381
     18 C          65.4448   90.5520   13.9774 C.ar    1  UNL1        0.0326
     19 C          63.9117   88.6928   14.9486 C.3     1  UNL1        0.0290
     20 C          63.0695   88.9658   16.1594 C.3     1  UNL1        0.0367
     21 C          63.4207   90.0990   17.0773 C.3     1  UNL1        0.1426
     22 C          64.5009   92.4342   16.7166 C.3     1  UNL1        0.1741
     23 O          63.3220   91.5151   16.5925 O.3     1  UNL1       -0.3511
     24 O          66.9779   92.4112   13.0063 O.3     1  UNL1       -0.4728
     25 C          68.1577   91.8715   13.7592 C.3     1  UNL1        0.2373
     26 C          68.2549   92.0693   15.2429 C.3     1  UNL1        0.1894
     27 O          69.2956   92.9886   15.8104 O.3     1  UNL1       -0.3471
     28 C          68.9687   94.4321   16.0538 C.3     1  UNL1        0.1743
     29 C          60.1825   87.2946   10.0416 C.3     1  UNL1        0.0368
     30 C          61.2434   86.2343   10.0615 C.ar    1  UNL1       -0.0217
     31 C          61.9110   85.8173    8.7846 C.ar    1  UNL1       -0.0046
     32 C          62.9719   84.7571    8.8045 C.ar    1  UNL1       -0.0046
     33 C          63.3652   84.1139   10.1013 C.ar    1  UNL1       -0.0221
     34 C          62.6976   84.5309   11.3781 C.ar    1  UNL1       -0.0046
     35 C          61.6367   85.5911   11.3582 C.ar    1  UNL1       -0.0046
     36 C          64.4262   83.0537   10.1211 C.3     1  UNL1        0.0302
     37 C          64.1528   81.7313   10.7742 C.3     1  UNL1        0.0520
     38 C          63.7486   81.6770   12.2177 C.3     1  UNL1        0.2058
     39 O          64.6054   82.3300   13.2616 O.3     1  UNL1       -0.4737
     40 C          63.9884   83.2593   14.2644 C.ar    1  UNL1        0.1594
     41 C          64.7638   84.4399   14.7693 C.ar    1  UNL1        0.0921
     42 CL         66.1562   84.6912   14.2712 Cl      1  UNL1       -0.0791
     43 C          64.1468   85.3692   15.7721 C.ar    1  UNL1        0.0103
     44 C          62.7544   85.1179   16.2702 C.ar    1  UNL1       -0.0200
     45 C          62.1374   86.0472   17.2730 C.3     1  UNL1        0.0311
     46 C          61.9789   83.9372   15.7653 C.ar    1  UNL1        0.0103
     47 C          62.5959   83.0079   14.7625 C.ar    1  UNL1        0.0921
     48 CL         61.8205   81.8273   14.2577 Cl      1  UNL1       -0.0791
@<TRIPOS>BOND
     1    22    23    1
     2    23    21    1
     3    21    20    1
     4    20    19    1
     5    19    13    1
     6    13    14   ar
     7    14    15   ar
     8    15    12    1
     9    12     6    1
    10     6     7   am
    11     7     8    2
    12     7     1    1
    13     1     2    1
    14     2     3    1
    15     1    29    1
    16    29    30    1
    17    30    31   ar
    18    31    32   ar
    19    32    33   ar
    20    33    36    1
    21    36    37    1
    22    37    38    1
    23    38    39    1
    24    39    40    1
    25    40    41   ar
    26    41    42    1
    27    41    43   ar
    28    43    44   ar
    29    44    45    1
    30    44    46   ar
    31    46    47   ar
    32    47    48    1
    33    33    34   ar
    34    34    35   ar
    35     6     9    1
    36     9    10    1
    37    10    11    1
    38    15    16   ar
    39    16    17   ar
    40    17    24    1
    41    24    25    1
    42    25    26    1
    43    26    27    1
    44    27    28    1
    45    17    18   ar
    46    18    13   ar
    47    35    30   ar
    48    11     9    1
    49    47    40   ar
    50     3     4    1
    51     3     5    1
