@<TRIPOS>MOLECULE
*****
 47 52 0 0 0
SMALL
GASTEIGER

@<TRIPOS>ATOM
      1 C          64.0226   84.3412   13.3051 C.ar    1  UNL1        0.1721
      2 C          63.5093   85.7353   13.5123 C.ar    1  UNL1        0.0360
      3 C          62.8352   86.4614   12.3861 C.ar    1  UNL1       -0.0119
      4 C          62.6743   85.7934   11.0528 C.ar    1  UNL1       -0.0000
      5 C          63.1876   84.3993   10.8456 C.ar    1  UNL1        0.0374
      6 C          63.8618   83.6732   11.9718 C.ar    1  UNL1        0.1718
      7 C          62.0001   86.5195    9.9266 C.3     1  UNL1        0.1246
      8 N          61.4868   87.9136   10.1338 N.am    1  UNL1       -0.2508
      9 C          61.6477   88.5817   11.4672 C.2     1  UNL1        0.2342
     10 O          61.1344   89.9758   11.6743 O.2     1  UNL1       -0.2742
     11 C          62.3219   87.8555   12.5933 C.3     1  UNL1        0.1118
     12 C          61.8392   85.8515    8.5932 C.ar    1  UNL1        0.0003
     13 C          63.0493   85.4079    7.8257 C.ar    1  UNL1       -0.0015
     14 C          62.8884   84.7399    6.4923 C.ar    1  UNL1        0.0111
     15 C          61.5175   84.5155    5.9265 C.ar    1  UNL1        0.0577
     16 CL         61.3567   83.8474    4.5930 Cl      1  UNL1       -0.0822
     17 C          60.3075   84.9590    6.6939 C.ar    1  UNL1        0.0111
     18 C          60.4683   85.6270    8.0274 C.ar    1  UNL1       -0.0015
     19 C          60.8127   88.6397    9.0076 C.ar    1  UNL1        0.0736
     20 C          59.5419   88.0999    8.4213 C.ar    1  UNL1        0.0194
     21 C          58.8677   88.8260    7.2952 C.ar    1  UNL1        0.0356
     22 C          59.4643   90.0919    6.7552 C.ar    1  UNL1        0.1318
     23 N          60.7352   90.6318    7.3415 N.ar    1  UNL1       -0.2279
     24 C          61.4093   89.9056    8.4677 C.ar    1  UNL1        0.1151
     25 N          58.7901   90.8180    5.6291 N.pl3   1  UNL1       -0.2915
     26 C          57.6926   90.1491    4.8558 C.3     1  UNL1        0.1136
     27 C          59.2135   92.2131    5.2762 C.3     1  UNL1        0.0922
     28 C          59.9558   92.4711    3.9985 C.3     1  UNL1        0.0199
     29 C          59.2807   93.1960    2.8721 C.3     1  UNL1        0.0031
     30 C          60.0230   93.4539    1.5944 C.3     1  UNL1        0.0160
     31 C          61.4404   92.9869    1.4431 C.3     1  UNL1        0.0580
     32 C          62.1155   92.2620    2.5695 C.3     1  UNL1        0.0160
     33 C          61.3732   92.0040    3.8472 C.3     1  UNL1        0.0031
     34 N          62.1827   93.2448    0.1655 N.3     1  UNL1       -0.2649
     35 C          63.6595   93.5066    0.1957 C.3     1  UNL1        0.0942
     36 C          64.4018   93.7645   -1.0819 C.3     1  UNL1        0.1108
     37 N          63.6673   93.7606   -2.3899 N.am    1  UNL1       -0.2752
     38 C          64.4096   94.0185   -3.6676 C.3     1  UNL1        0.1149
     39 C          62.1907   93.4989   -2.4201 C.2     1  UNL1        0.2421
     40 O          61.4563   93.4950   -3.7281 O.2     1  UNL1       -0.2734
     41 C          61.4484   93.2410   -1.1425 C.3     1  UNL1        0.1586
     42 C          63.9090   83.2135   15.6429 C.3     1  UNL1        0.2526
     43 O          64.6968   83.6150   14.4313 O.3     1  UNL1       -0.4684
     44 O          64.3751   82.2790   11.7645 O.3     1  UNL1       -0.4761
     45 C          63.4149   81.1286   11.6971 C.3     1  UNL1        0.1663
     46 C          63.1300   80.4655   10.3821 C.3     1  UNL1        0.0472
     47 C          62.7396   80.6412   12.9446 C.3     1  UNL1        0.0472
@<TRIPOS>BOND
     1    42    43    1
     2    43     1    1
     3     1     2   ar
     4     2     3   ar
     5     3     4   ar
     6     4     5   ar
     7     5     6   ar
     8     6    44    1
     9    44    45    1
    10    45    46    1
    11    45    47    1
    12     4     7    1
    13     7    12    1
    14    12    13   ar
    15    13    14   ar
    16    14    15   ar
    17    15    16    1
    18    15    17   ar
    19    17    18   ar
    20     7     8    1
    21     8    19    1
    22    19    20   ar
    23    20    21   ar
    24    21    22   ar
    25    22    25    1
    26    25    26    1
    27    25    27    1
    28    28    27    1
    29    28    29    1
    30    29    30    1
    31    30    31    1
    32    31    34    1
    33    34    35    1
    34    35    36    1
    35    36    37    1
    36    37    38    1
    37    37    39   am
    38    39    40    2
    39    39    41    1
    40    31    32    1
    41    32    33    1
    42    22    23   ar
    43    23    24   ar
    44     8     9   am
    45     9    10    2
    46     9    11    1
    47     6     1   ar
    48    18    12   ar
    49    24    19   ar
    50    11     3    1
    51    33    28    1
    52    41    34    1
@<TRIPOS>MOLECULE
*****
 47 52 0 0 0
SMALL
GASTEIGER

@<TRIPOS>ATOM
      1 C          63.9089   83.1159   12.3426 C.ar    1  UNL1        0.1721
      2 C          63.8037   83.0681   10.8471 C.ar    1  UNL1        0.0360
      3 C          63.0450   84.1345   10.1141 C.ar    1  UNL1       -0.0119
      4 C          62.3915   85.2486   10.8766 C.ar    1  UNL1       -0.0000
      5 C          62.4967   85.2964   12.3721 C.ar    1  UNL1        0.0374
      6 C          63.2554   84.2301   13.1051 C.ar    1  UNL1        0.1718
      7 C          61.6327   86.3150   10.1437 C.3     1  UNL1        0.1246
      8 N          61.5275   86.2671    8.6482 N.am    1  UNL1       -0.2508
      9 C          62.1811   85.1529    7.8855 C.2     1  UNL1        0.2342
     10 O          62.0759   85.1051    6.3900 O.2     1  UNL1       -0.2742
     11 C          62.9398   84.0866    8.6185 C.3     1  UNL1        0.1118
     12 C          60.9792   87.4291   10.9062 C.ar    1  UNL1        0.0003
     13 C          61.8093   88.5549   11.4481 C.ar    1  UNL1       -0.0015
     14 C          61.1558   89.6691   12.2107 C.ar    1  UNL1        0.0111
     15 C          59.6722   89.6575   12.4313 C.ar    1  UNL1        0.0577
     16 CL         59.0187   90.7718   13.1939 Cl      1  UNL1       -0.0822
     17 C          58.8421   88.5319   11.8894 C.ar    1  UNL1        0.0111
     18 C          59.4956   87.4176   11.1268 C.ar    1  UNL1       -0.0015
     19 C          60.7688   87.3335    7.9152 C.ar    1  UNL1        0.0736
     20 C          61.1643   88.7726    8.0646 C.ar    1  UNL1        0.0194
     21 C          60.4056   89.8390    7.3316 C.ar    1  UNL1        0.0356
     22 C          59.2514   89.4662    6.4492 C.ar    1  UNL1        0.1318
     23 N          58.8557   88.0270    6.2998 N.ar    1  UNL1       -0.2279
     24 C          59.6145   86.9606    7.0328 C.ar    1  UNL1        0.1151
     25 N          58.4926   90.5325    5.7163 N.pl3   1  UNL1       -0.2915
     26 C          57.1320   90.2362    5.1588 C.3     1  UNL1        0.1136
     27 C          59.0946   91.8952    5.5407 C.3     1  UNL1        0.0922
     28 C          59.8430   92.2283    4.2841 C.3     1  UNL1        0.0199
     29 C          61.2897   91.8547    4.1513 C.3     1  UNL1        0.0031
     30 C          62.0380   92.1878    2.8947 C.3     1  UNL1        0.0160
     31 C          61.3396   92.8945    1.7709 C.3     1  UNL1        0.0580
     32 C          59.8930   93.2680    1.9037 C.3     1  UNL1        0.0160
     33 C          59.1447   92.9350    3.1603 C.3     1  UNL1        0.0031
     34 N          62.0879   93.2276    0.5143 N.3     1  UNL1       -0.2649
     35 C          61.5007   92.8824   -0.8222 C.3     1  UNL1        0.0942
     36 C          62.2490   93.2155   -2.0788 C.3     1  UNL1        0.1108
     37 N          63.5846   93.8938   -1.9989 N.am    1  UNL1       -0.2752
     38 C          64.3329   94.2268   -3.2555 C.3     1  UNL1        0.1149
     39 C          64.1718   94.2388   -0.6625 C.2     1  UNL1        0.2421
     40 O          65.5074   94.9171   -0.5826 O.2     1  UNL1       -0.2734
     41 C          63.4235   93.9057    0.5941 C.3     1  UNL1        0.1586
     42 C          63.9293   80.9237   13.7367 C.3     1  UNL1        0.2526
     43 O          64.6676   82.0496   13.0756 O.3     1  UNL1       -0.4684
     44 O          63.3606   84.2780   14.6007 O.3     1  UNL1       -0.4761
     45 C          63.8670   85.5170   15.2777 C.3     1  UNL1        0.1663
     46 C          63.2787   85.9495   16.5880 C.3     1  UNL1        0.0472
     47 C          64.9617   86.3235   14.6444 C.3     1  UNL1        0.0472
@<TRIPOS>BOND
     1    42    43    1
     2    43     1    1
     3     1     2   ar
     4     2     3   ar
     5     3     4   ar
     6     4     5   ar
     7     5     6   ar
     8     6    44    1
     9    44    45    1
    10    45    46    1
    11    45    47    1
    12     4     7    1
    13     7    12    1
    14    12    13   ar
    15    13    14   ar
    16    14    15   ar
    17    15    16    1
    18    15    17   ar
    19    17    18   ar
    20     7     8    1
    21     8    19    1
    22    19    20   ar
    23    20    21   ar
    24    21    22   ar
    25    22    25    1
    26    25    26    1
    27    25    27    1
    28    28    27    1
    29    28    29    1
    30    29    30    1
    31    30    31    1
    32    31    34    1
    33    34    35    1
    34    35    36    1
    35    36    37    1
    36    37    38    1
    37    37    39   am
    38    39    40    2
    39    39    41    1
    40    31    32    1
    41    32    33    1
    42    22    23   ar
    43    23    24   ar
    44     8     9   am
    45     9    10    2
    46     9    11    1
    47     6     1   ar
    48    18    12   ar
    49    24    19   ar
    50    11     3    1
    51    33    28    1
    52    41    34    1
@<TRIPOS>MOLECULE
*****
 47 52 0 0 0
SMALL
GASTEIGER

@<TRIPOS>ATOM
      1 C          60.0708   91.1907    5.3981 C.ar    1  UNL1        0.1721
      2 C          61.4419   91.0017    4.8201 C.ar    1  UNL1        0.0360
      3 C          61.8165   91.6857    3.5387 C.ar    1  UNL1       -0.0119
      4 C          60.8199   92.5588    2.8355 C.ar    1  UNL1       -0.0000
      5 C          59.4488   92.7478    3.4135 C.ar    1  UNL1        0.0374
      6 C          59.0742   92.0638    4.6949 C.ar    1  UNL1        0.1718
      7 C          61.1945   93.2428    1.5541 C.3     1  UNL1        0.1246
      8 N          62.5656   93.0538    0.9760 N.am    1  UNL1       -0.2508
      9 C          63.5623   92.1807    1.6793 C.2     1  UNL1        0.2342
     10 O          64.9334   91.9917    1.1012 O.2     1  UNL1       -0.2742
     11 C          63.1877   91.4967    2.9607 C.3     1  UNL1        0.1118
     12 C          60.1979   94.1158    0.8508 C.ar    1  UNL1        0.0003
     13 C          59.0556   93.4966    0.1012 C.ar    1  UNL1       -0.0015
     14 C          58.0590   94.3696   -0.6020 C.ar    1  UNL1        0.0111
     15 C          58.2047   95.8618   -0.5557 C.ar    1  UNL1        0.0577
     16 CL         57.2080   96.7349   -1.2591 Cl      1  UNL1       -0.0822
     17 C          59.3469   96.4810    0.1938 C.ar    1  UNL1        0.0111
     18 C          60.3436   95.6080    0.8971 C.ar    1  UNL1       -0.0015
     19 C          62.9402   93.7378   -0.3053 C.ar    1  UNL1        0.0736
     20 C          62.7008   93.0536   -1.6185 C.ar    1  UNL1        0.0194
     21 C          63.0754   93.7376   -2.8998 C.ar    1  UNL1        0.0356
     22 C          63.6893   95.1058   -2.8680 C.ar    1  UNL1        0.1318
     23 N          63.9287   95.7901   -1.5547 N.ar    1  UNL1       -0.2279
     24 C          63.5541   95.1061   -0.2734 C.ar    1  UNL1        0.1151
     25 N          64.0639   95.7898   -4.1493 N.pl3   1  UNL1       -0.2915
     26 C          65.1240   96.8510   -4.1509 C.3     1  UNL1        0.1136
     27 C          63.3782   95.4127   -5.4291 C.3     1  UNL1        0.0922
     28 C          61.8896   95.5510   -5.5514 C.3     1  UNL1        0.0199
     29 C          61.2826   96.0082   -6.8447 C.3     1  UNL1        0.0031
     30 C          59.7940   96.1466   -6.9671 C.3     1  UNL1        0.0160
     31 C          58.9124   95.8278   -5.7960 C.3     1  UNL1        0.0580
     32 C          59.5194   95.3707   -4.5028 C.3     1  UNL1        0.0160
     33 C          61.0080   95.2323   -4.3804 C.3     1  UNL1        0.0031
     34 N          57.4239   95.9662   -5.9183 N.3     1  UNL1       -0.2649
     35 C          56.8132   96.3694   -7.2278 C.3     1  UNL1        0.0942
     36 C          55.3246   96.5077   -7.3501 C.3     1  UNL1        0.1108
     37 N          54.4467   96.2429   -6.1630 N.am    1  UNL1       -0.2752
     38 C          52.9581   96.3813   -6.2853 C.3     1  UNL1        0.1149
     39 C          55.0574   95.8398   -4.8536 C.2     1  UNL1        0.2421
     40 O          54.1795   95.5750   -3.6665 O.2     1  UNL1       -0.2734
     41 C          56.5460   95.7014   -4.7313 C.3     1  UNL1        0.1586
     42 C          59.7352   89.0100    6.7699 C.3     1  UNL1        0.2526
     43 O          59.6962   90.5067    6.6795 O.3     1  UNL1       -0.4684
     44 O          57.7030   92.2528    5.2729 O.3     1  UNL1       -0.4761
     45 C          56.6916   91.1490    5.1809 C.3     1  UNL1        0.1663
     46 C          56.9602   89.8286    5.8403 C.3     1  UNL1        0.0472
     47 C          55.4115   91.3653    4.4296 C.3     1  UNL1        0.0472
@<TRIPOS>BOND
     1    42    43    1
     2    43     1    1
     3     1     2   ar
     4     2     3   ar
     5     3     4   ar
     6     4     5   ar
     7     5     6   ar
     8     6    44    1
     9    44    45    1
    10    45    46    1
    11    45    47    1
    12     4     7    1
    13     7    12    1
    14    12    13   ar
    15    13    14   ar
    16    14    15   ar
    17    15    16    1
    18    15    17   ar
    19    17    18   ar
    20     7     8    1
    21     8    19    1
    22    19    20   ar
    23    20    21   ar
    24    21    22   ar
    25    22    25    1
    26    25    26    1
    27    25    27    1
    28    28    27    1
    29    28    29    1
    30    29    30    1
    31    30    31    1
    32    31    34    1
    33    34    35    1
    34    35    36    1
    35    36    37    1
    36    37    38    1
    37    37    39   am
    38    39    40    2
    39    39    41    1
    40    31    32    1
    41    32    33    1
    42    22    23   ar
    43    23    24   ar
    44     8     9   am
    45     9    10    2
    46     9    11    1
    47     6     1   ar
    48    18    12   ar
    49    24    19   ar
    50    11     3    1
    51    33    28    1
    52    41    34    1
@<TRIPOS>MOLECULE
*****
 47 52 0 0 0
SMALL
GASTEIGER

@<TRIPOS>ATOM
      1 C          61.0459   91.6468    4.8359 C.ar    1  UNL1        0.1721
      2 C          62.2808   91.5989    3.9858 C.ar    1  UNL1        0.0360
      3 C          62.2691   92.2000    2.6116 C.ar    1  UNL1       -0.0119
      4 C          61.0225   92.8490    2.0875 C.ar    1  UNL1       -0.0000
      5 C          59.7876   92.8969    2.9375 C.ar    1  UNL1        0.0374
      6 C          59.7993   92.2958    4.3118 C.ar    1  UNL1        0.1718
      7 C          61.0108   93.4501    0.7132 C.3     1  UNL1        0.1246
      8 N          62.2457   93.4023   -0.1369 N.am    1  UNL1       -0.2508
      9 C          63.4924   92.7532    0.3873 C.2     1  UNL1        0.2342
     10 O          64.7273   92.7053   -0.4628 O.2     1  UNL1       -0.2742
     11 C          63.5041   92.1521    1.7615 C.3     1  UNL1        0.1118
     12 C          59.7643   94.0991    0.1891 C.ar    1  UNL1        0.0003
     13 C          58.6778   93.2588   -0.4139 C.ar    1  UNL1       -0.0015
     14 C          57.4312   93.9078   -0.9381 C.ar    1  UNL1        0.0111
     15 C          57.2710   95.3971   -0.8593 C.ar    1  UNL1        0.0577
     16 CL         56.0243   96.0461   -1.3835 Cl      1  UNL1       -0.0822
     17 C          58.3574   96.2375   -0.2563 C.ar    1  UNL1        0.0111
     18 C          59.6040   95.5885    0.2679 C.ar    1  UNL1       -0.0015
     19 C          62.2340   94.0034   -1.5111 C.ar    1  UNL1        0.0736
     20 C          61.6247   93.2481   -2.6549 C.ar    1  UNL1        0.0194
     21 C          61.6131   93.8493   -4.0291 C.ar    1  UNL1        0.0356
     22 C          62.2107   95.2056   -4.2596 C.ar    1  UNL1        0.1318
     23 N          62.8200   95.9609   -3.1157 N.ar    1  UNL1       -0.2279
     24 C          62.8317   95.3598   -1.7415 C.ar    1  UNL1        0.1151
     25 N          62.1990   95.8067   -5.6338 N.pl3   1  UNL1       -0.2915
     26 C          63.2064   96.8551   -6.0024 C.3     1  UNL1        0.1136
     27 C          61.1798   95.3594   -6.6394 C.3     1  UNL1        0.0922
     28 C          59.7186   95.5615   -6.3672 C.3     1  UNL1        0.0199
     29 C          58.7917   95.9341   -7.4861 C.3     1  UNL1        0.0031
     30 C          57.3305   96.1361   -7.2139 C.3     1  UNL1        0.0160
     31 C          56.7963   95.9656   -5.8226 C.3     1  UNL1        0.0580
     32 C          57.7232   95.5930   -4.7037 C.3     1  UNL1        0.0160
     33 C          59.1843   95.3910   -4.9760 C.3     1  UNL1        0.0031
     34 N          55.3351   96.1677   -5.5503 N.3     1  UNL1       -0.2649
     35 C          54.8336   96.2041   -4.1370 C.3     1  UNL1        0.0942
     36 C          53.3724   96.4061   -3.8647 C.3     1  UNL1        0.1108
     37 N          52.4127   96.5718   -5.0057 N.am    1  UNL1       -0.2752
     38 C          50.9516   96.7739   -4.7334 C.3     1  UNL1        0.1149
     39 C          52.9143   96.5355   -6.4188 C.2     1  UNL1        0.2421
     40 O          51.9547   96.7012   -7.5598 O.2     1  UNL1       -0.2734
     41 C          54.3755   96.3334   -6.6911 C.3     1  UNL1        0.1586
     42 C          59.8513   90.3136    6.7189 C.3     1  UNL1        0.2526
     43 O          61.0576   91.0457    6.2102 O.3     1  UNL1       -0.4684
     44 O          58.5644   92.3437    5.1619 O.3     1  UNL1       -0.4761
     45 C          57.5748   91.2176    5.1112 C.3     1  UNL1        0.1663
     46 C          56.1466   91.4901    4.7421 C.3     1  UNL1        0.0472
     47 C          58.0134   89.8189    5.4296 C.3     1  UNL1        0.0472
@<TRIPOS>BOND
     1    42    43    1
     2    43     1    1
     3     1     2   ar
     4     2     3   ar
     5     3     4   ar
     6     4     5   ar
     7     5     6   ar
     8     6    44    1
     9    44    45    1
    10    45    46    1
    11    45    47    1
    12     4     7    1
    13     7    12    1
    14    12    13   ar
    15    13    14   ar
    16    14    15   ar
    17    15    16    1
    18    15    17   ar
    19    17    18   ar
    20     7     8    1
    21     8    19    1
    22    19    20   ar
    23    20    21   ar
    24    21    22   ar
    25    22    25    1
    26    25    26    1
    27    25    27    1
    28    28    27    1
    29    28    29    1
    30    29    30    1
    31    30    31    1
    32    31    34    1
    33    34    35    1
    34    35    36    1
    35    36    37    1
    36    37    38    1
    37    37    39   am
    38    39    40    2
    39    39    41    1
    40    31    32    1
    41    32    33    1
    42    22    23   ar
    43    23    24   ar
    44     8     9   am
    45     9    10    2
    46     9    11    1
    47     6     1   ar
    48    18    12   ar
    49    24    19   ar
    50    11     3    1
    51    33    28    1
    52    41    34    1
