@<TRIPOS>MOLECULE
*****
 36 40 0 0 0
SMALL
GASTEIGER

@<TRIPOS>ATOM
      1 C          64.0393   89.7130   15.2984 C.ar    1  UNL1        0.0842
      2 N          63.5436   90.3660   16.5545 N.ar    1  UNL1       -0.2437
      3 C          62.9472   89.5312   17.6487 C.ar    1  UNL1        0.0988
      4 C          62.8464   88.0434   17.4867 C.ar    1  UNL1        0.0207
      5 C          63.3421   87.3904   16.2306 C.ar    1  UNL1        0.0043
      6 C          63.2413   85.9026   16.0686 C.ar    1  UNL1        0.0203
      7 C          63.7370   85.2496   14.8125 C.ar    1  UNL1        0.1252
      8 C          64.3335   86.0844   13.7183 C.ar    1  UNL1        0.0202
      9 C          64.4343   87.5723   13.8802 C.ar    1  UNL1        0.0029
     10 C          63.9386   88.2252   15.1364 C.ar    1  UNL1        0.0179
     11 C          63.8689   90.7818   12.9364 C.ar    1  UNL1        0.1401
     12 C          64.4653   91.6166   11.8422 C.ar    1  UNL1        0.0369
     13 C          65.8287   92.2176   12.0157 C.ar    1  UNL1        0.0031
     14 C          66.5957   91.9836   13.2834 C.ar    1  UNL1        0.0002
     15 C          65.9992   91.1488   14.3776 C.ar    1  UNL1        0.0045
     16 C          64.6358   90.5479   14.2041 C.ar    1  UNL1        0.0516
     17 C          66.4251   93.0524   10.9215 C.ar    1  UNL1        0.0023
     18 C          67.5148   92.4894   10.0579 C.ar    1  UNL1        0.0001
     19 C          68.1112   93.3243    8.9636 C.ar    1  UNL1        0.0023
     20 C          67.6180   94.7220    8.7330 C.ar    1  UNL1        0.0296
     21 C          66.5283   95.2848    9.5966 C.ar    1  UNL1        0.1401
     22 F          66.0351   96.6825    9.3660 F       1  UNL1       -0.2042
     23 C          65.9319   94.4500   10.6908 C.ar    1  UNL1        0.0296
     24 C          62.1850   89.3924   11.5279 C.3     1  UNL1        0.2525
     25 O          62.5054   90.1809   12.7630 O.3     1  UNL1       -0.4714
     26 S          63.6363   83.7618   14.6506 S.O2    1  UNL1        0.0747
     27 O          62.1481   83.8441   14.8196 O.2     1  UNL1       -0.1499
     28 O          65.1244   83.6794   14.4815 O.2     1  UNL1       -0.1499
     29 N          63.5355   82.2739   14.4886 N.pl3   1  UNL1       -0.1988
     30 H          63.5782   81.6887   15.2791 H       1  UNL1        0.1753
     31 C          63.3697   81.6778   13.1221 C.ar    1  UNL1        0.1503
     32 C          62.8180   80.2912   12.9708 C.ar    1  UNL1        0.0563
     33 C          62.6521   79.6950   11.6044 C.ar    1  UNL1        0.1036
     34 N          63.0380   80.4854   10.3893 N.ar    1  UNL1       -0.2223
     35 C          63.5897   81.8721   10.5407 C.ar    1  UNL1        0.2001
     36 N          63.7555   82.4682   11.9071 N.ar    1  UNL1       -0.2077
@<TRIPOS>BOND
     1    24    25    1
     2    25    11    1
     3    11    12   ar
     4    12    13   ar
     5    13    17    1
     6    17    18   ar
     7    18    19   ar
     8    19    20   ar
     9    20    21   ar
    10    21    22    1
    11    21    23   ar
    12    13    14   ar
    13    14    15   ar
    14    15    16   ar
    15    16     1    1
    16     1     2   ar
    17     2     3   ar
    18     3     4   ar
    19     4     5   ar
    20     5     6   ar
    21     6     7   ar
    22     7    26    1
    23    26    27    2
    24    26    28    2
    25    26    29    1
    26    29    31    1
    27    31    32   ar
    28    32    33   ar
    29    33    34   ar
    30    34    35   ar
    31    35    36   ar
    32     7     8   ar
    33     8     9   ar
    34     9    10   ar
    35    16    11   ar
    36    10     1   ar
    37    23    17   ar
    38    10     5   ar
    39    36    31   ar
    40    29    30    1
@<TRIPOS>MOLECULE
*****
 36 40 0 0 0
SMALL
GASTEIGER

@<TRIPOS>ATOM
      1 C          64.1551   90.1771   15.1010 C.ar    1  UNL1        0.0842
      2 N          63.6899   90.9131   16.3224 N.ar    1  UNL1       -0.2437
      3 C          63.0922   90.1567   17.4716 C.ar    1  UNL1        0.0988
      4 C          62.9597   88.6644   17.3993 C.ar    1  UNL1        0.0207
      5 C          63.4249   87.9284   16.1779 C.ar    1  UNL1        0.0043
      6 C          63.2924   86.4360   16.1057 C.ar    1  UNL1        0.0203
      7 C          63.7576   85.7000   14.8843 C.ar    1  UNL1        0.1252
      8 C          64.3553   86.4564   13.7351 C.ar    1  UNL1        0.0202
      9 C          64.4878   87.9487   13.8073 C.ar    1  UNL1        0.0029
     10 C          64.0226   88.6847   15.0288 C.ar    1  UNL1        0.0179
     11 C          66.1451   91.4814   14.0577 C.ar    1  UNL1        0.1401
     12 C          66.7429   92.2378   12.9085 C.ar    1  UNL1        0.0369
     13 C          65.9483   92.4463   11.6534 C.ar    1  UNL1        0.0031
     14 C          64.5559   91.8984   11.5475 C.ar    1  UNL1        0.0002
     15 C          63.9582   91.1420   12.6968 C.ar    1  UNL1        0.0045
     16 C          64.7528   90.9335   13.9518 C.ar    1  UNL1        0.0516
     17 C          66.5460   93.2026   10.5043 C.ar    1  UNL1        0.0023
     18 C          67.6473   92.5870    9.6930 C.ar    1  UNL1        0.0001
     19 C          68.2451   93.3434    8.5438 C.ar    1  UNL1        0.0023
     20 C          67.7416   94.7153    8.2059 C.ar    1  UNL1        0.0296
     21 C          66.6402   95.3309    9.0172 C.ar    1  UNL1        0.1401
     22 F          66.1366   96.7029    8.6793 F       1  UNL1       -0.2042
     23 C          66.0425   94.5746   10.1663 C.ar    1  UNL1        0.0296
     24 C          67.7963   92.3805   15.8508 C.3     1  UNL1        0.2525
     25 O          66.9397   91.2729   15.3128 O.3     1  UNL1       -0.4714
     26 S          63.6251   84.2076   14.8121 S.O2    1  UNL1        0.0747
     27 O          62.1323   84.3368   14.8812 O.2     1  UNL1       -0.1499
     28 O          65.1179   84.0784   14.7430 O.2     1  UNL1       -0.1499
     29 N          63.4926   82.7152   14.7398 N.pl3   1  UNL1       -0.1988
     30 H          63.5032   82.1795   15.5658 H       1  UNL1        0.1753
     31 C          63.3441   82.0390   13.4091 C.ar    1  UNL1        0.1503
     32 C          62.8099   80.6393   13.3346 C.ar    1  UNL1        0.0563
     33 C          62.6613   79.9631   12.0040 C.ar    1  UNL1        0.1036
     34 N          63.0469   80.6865   10.7478 N.ar    1  UNL1       -0.2223
     35 C          63.5811   82.0862   10.8223 C.ar    1  UNL1        0.2001
     36 N          63.7296   82.7624   12.1530 N.ar    1  UNL1       -0.2077
@<TRIPOS>BOND
     1    24    25    1
     2    25    11    1
     3    11    12   ar
     4    12    13   ar
     5    13    17    1
     6    17    18   ar
     7    18    19   ar
     8    19    20   ar
     9    20    21   ar
    10    21    22    1
    11    21    23   ar
    12    13    14   ar
    13    14    15   ar
    14    15    16   ar
    15    16     1    1
    16     1     2   ar
    17     2     3   ar
    18     3     4   ar
    19     4     5   ar
    20     5     6   ar
    21     6     7   ar
    22     7    26    1
    23    26    27    2
    24    26    28    2
    25    26    29    1
    26    29    31    1
    27    31    32   ar
    28    32    33   ar
    29    33    34   ar
    30    34    35   ar
    31    35    36   ar
    32     7     8   ar
    33     8     9   ar
    34     9    10   ar
    35    16    11   ar
    36    10     1   ar
    37    23    17   ar
    38    10     5   ar
    39    36    31   ar
    40    29    30    1
@<TRIPOS>MOLECULE
*****
 36 40 0 0 0
SMALL
GASTEIGER

@<TRIPOS>ATOM
      1 C          62.2201   87.8374   10.8647 C.ar    1  UNL1        0.0842
      2 N          61.4502   88.3123    9.6682 N.ar    1  UNL1       -0.2437
      3 C          61.3664   89.7787    9.3639 C.ar    1  UNL1        0.0988
      4 C          62.0525   90.7702   10.2561 C.ar    1  UNL1        0.0207
      5 C          62.8225   90.2954   11.4526 C.ar    1  UNL1        0.0043
      6 C          63.5086   91.2869   12.3448 C.ar    1  UNL1        0.0203
      7 C          64.2786   90.8121   13.5413 C.ar    1  UNL1        0.1252
      8 C          64.3624   89.3456   13.8457 C.ar    1  UNL1        0.0202
      9 C          63.6762   88.3541   12.9535 C.ar    1  UNL1        0.0029
     10 C          62.9062   88.8290   11.7569 C.ar    1  UNL1        0.0179
     11 C          62.5988   85.3928   10.0708 C.ar    1  UNL1        0.1401
     12 C          62.6826   83.9264   10.3751 C.ar    1  UNL1        0.0369
     13 C          62.4716   83.4381   11.7777 C.ar    1  UNL1        0.0031
     14 C          62.1767   84.4164   12.8759 C.ar    1  UNL1        0.0002
     15 C          62.0929   85.8828   12.5716 C.ar    1  UNL1        0.0045
     16 C          62.3039   86.3710   11.1691 C.ar    1  UNL1        0.0516
     17 C          62.5554   81.9718   12.0820 C.ar    1  UNL1        0.0023
     18 C          62.4685   81.4942   13.5012 C.ar    1  UNL1        0.0001
     19 C          62.5523   80.0277   13.8056 C.ar    1  UNL1        0.0023
     20 C          62.7231   79.0389   12.6906 C.ar    1  UNL1        0.0296
     21 C          62.8100   79.5166   11.2713 C.ar    1  UNL1        0.1401
     22 F          62.9807   78.5278   10.1563 F       1  UNL1       -0.2042
     23 C          62.7261   80.9830   10.9670 C.ar    1  UNL1        0.0296
     24 C          62.6967   84.9263    7.5168 C.3     1  UNL1        0.2525
     25 O          62.8098   85.8810    8.6682 O.3     1  UNL1       -0.4714
     26 S          64.9647   91.8036   14.4336 S.O2    1  UNL1        0.0747
     27 O          64.7220   90.9098   15.6135 O.2     1  UNL1       -0.1499
     28 O          65.2074   92.6974   13.2536 O.2     1  UNL1       -0.1499
     29 N          65.6509   92.7952   15.3258 N.pl3   1  UNL1       -0.1988
     30 H          65.1244   93.3334   15.9601 H       1  UNL1        0.1753
     31 C          67.1392   92.9666   15.2515 C.ar    1  UNL1        0.1503
     32 C          67.9497   92.0966   14.3370 C.ar    1  UNL1        0.0563
     33 C          69.4380   92.2680   14.2628 C.ar    1  UNL1        0.1036
     34 N          70.1159   93.3094   15.1031 N.ar    1  UNL1       -0.2223
     35 C          69.3055   94.1793   16.0176 C.ar    1  UNL1        0.2001
     36 N          67.8171   94.0079   16.0918 N.ar    1  UNL1       -0.2077
@<TRIPOS>BOND
     1    24    25    1
     2    25    11    1
     3    11    12   ar
     4    12    13   ar
     5    13    17    1
     6    17    18   ar
     7    18    19   ar
     8    19    20   ar
     9    20    21   ar
    10    21    22    1
    11    21    23   ar
    12    13    14   ar
    13    14    15   ar
    14    15    16   ar
    15    16     1    1
    16     1     2   ar
    17     2     3   ar
    18     3     4   ar
    19     4     5   ar
    20     5     6   ar
    21     6     7   ar
    22     7    26    1
    23    26    27    2
    24    26    28    2
    25    26    29    1
    26    29    31    1
    27    31    32   ar
    28    32    33   ar
    29    33    34   ar
    30    34    35   ar
    31    35    36   ar
    32     7     8   ar
    33     8     9   ar
    34     9    10   ar
    35    16    11   ar
    36    10     1   ar
    37    23    17   ar
    38    10     5   ar
    39    36    31   ar
    40    29    30    1
@<TRIPOS>MOLECULE
*****
 36 40 0 0 0
SMALL
GASTEIGER

@<TRIPOS>ATOM
      1 C          58.6168   89.5184    6.4695 C.ar    1  UNL1        0.0842
      2 N          57.1254   89.5332    6.6290 N.ar    1  UNL1       -0.2437
      3 C          56.2946   90.4882    5.8242 C.ar    1  UNL1        0.0988
      4 C          56.9552   91.4284    4.8600 C.ar    1  UNL1        0.0207
      5 C          58.4466   91.4136    4.7006 C.ar    1  UNL1        0.0043
      6 C          59.1071   92.3538    3.7364 C.ar    1  UNL1        0.0203
      7 C          60.5985   92.3390    3.5770 C.ar    1  UNL1        0.1252
      8 C          61.4294   91.3840    4.3818 C.ar    1  UNL1        0.0202
      9 C          60.7689   90.4438    5.3460 C.ar    1  UNL1        0.0029
     10 C          59.2774   90.4586    5.5054 C.ar    1  UNL1        0.0179
     11 C          60.0252   88.9960    8.5894 C.ar    1  UNL1        0.1401
     12 C          60.8560   88.0411    9.3942 C.ar    1  UNL1        0.0369
     13 C          61.1095   86.6534    8.8839 C.ar    1  UNL1        0.0031
     14 C          60.5320   86.2208    7.5688 C.ar    1  UNL1        0.0002
     15 C          59.7011   87.1758    6.7640 C.ar    1  UNL1        0.0045
     16 C          59.4477   88.5634    7.2743 C.ar    1  UNL1        0.0516
     17 C          61.9404   85.6985    9.6887 C.ar    1  UNL1        0.0023
     18 C          62.9540   84.8279    9.0070 C.ar    1  UNL1        0.0001
     19 C          63.7849   83.8729    9.8118 C.ar    1  UNL1        0.0023
     20 C          63.6022   83.7886   11.2982 C.ar    1  UNL1        0.0296
     21 C          62.5885   84.6592   11.9799 C.ar    1  UNL1        0.1401
     22 F          62.4057   84.5748   13.4663 F       1  UNL1       -0.2042
     23 C          61.7576   85.6141   11.1751 C.ar    1  UNL1        0.0296
     24 C          59.8087   90.6591   10.5737 C.3     1  UNL1        0.2525
     25 O          59.7717   90.3836    9.0997 O.3     1  UNL1       -0.4714
     26 S          61.2591   93.2792    2.6128 S.O2    1  UNL1        0.0747
     27 O          60.1192   94.2414    2.7701 O.2     1  UNL1       -0.1499
     28 O          62.3990   92.3171    2.4556 O.2     1  UNL1       -0.1499
     29 N          61.9197   94.2195    1.6487 N.pl3   1  UNL1       -0.1988
     30 H          62.4102   95.0043    1.9843 H       1  UNL1        0.1753
     31 C          61.8329   93.9638    0.1731 C.ar    1  UNL1        0.1503
     32 C          63.0862   93.8445   -0.6424 C.ar    1  UNL1        0.0563
     33 C          62.9994   93.5889   -2.1179 C.ar    1  UNL1        0.1036
     34 N          61.6593   93.4525   -2.7779 N.ar    1  UNL1       -0.2223
     35 C          60.4060   93.5718   -1.9624 C.ar    1  UNL1        0.2001
     36 N          60.4928   93.8275   -0.4869 N.ar    1  UNL1       -0.2077
@<TRIPOS>BOND
     1    24    25    1
     2    25    11    1
     3    11    12   ar
     4    12    13   ar
     5    13    17    1
     6    17    18   ar
     7    18    19   ar
     8    19    20   ar
     9    20    21   ar
    10    21    22    1
    11    21    23   ar
    12    13    14   ar
    13    14    15   ar
    14    15    16   ar
    15    16     1    1
    16     1     2   ar
    17     2     3   ar
    18     3     4   ar
    19     4     5   ar
    20     5     6   ar
    21     6     7   ar
    22     7    26    1
    23    26    27    2
    24    26    28    2
    25    26    29    1
    26    29    31    1
    27    31    32   ar
    28    32    33   ar
    29    33    34   ar
    30    34    35   ar
    31    35    36   ar
    32     7     8   ar
    33     8     9   ar
    34     9    10   ar
    35    16    11   ar
    36    10     1   ar
    37    23    17   ar
    38    10     5   ar
    39    36    31   ar
    40    29    30    1
