@<TRIPOS>MOLECULE
*****
 20 21 0 0 0
SMALL
GASTEIGER

@<TRIPOS>ATOM
      1 C          65.5515   92.7024   10.7660 C.3     1  UNL1        0.0522
      2 C          65.0053   91.9860   11.9653 C.ar    1  UNL1        0.0624
      3 C          63.7215   91.2175   11.8596 C.ar    1  UNL1        0.0519
      4 C          63.1753   90.5011   13.0590 C.ar    1  UNL1        0.1452
      5 C          63.9129   90.5532   14.3640 C.ar    1  UNL1        0.0475
      6 C          65.1967   91.3217   14.4697 C.ar    1  UNL1        0.0985
      7 N          65.7429   92.0381   13.2704 N.ar    1  UNL1       -0.2482
      8 O          61.8914   89.7325   12.9532 O.3     1  UNL1       -0.4540
      9 C          61.5745   88.9704   11.7008 C.ar    1  UNL1        0.1413
     10 C          62.4253   87.8025   11.2980 C.ar    1  UNL1        0.0380
     11 C          62.1084   87.0403   10.0455 C.ar    1  UNL1        0.0145
     12 C          60.9408   87.4460    9.1958 C.ar    1  UNL1        0.0576
     13 CL         60.6239   86.6839    7.9434 Cl      1  UNL1       -0.0823
     14 C          60.0900   88.6139    9.5986 C.ar    1  UNL1        0.0101
     15 C          60.4069   89.3761   10.8511 C.ar    1  UNL1        0.0135
     16 C          59.5561   90.5439   11.2539 C.3     1  UNL1        0.0343
     17 C          63.3667   89.8368   15.5634 C.3     1  UNL1        0.1039
     18 N          63.6073   88.3659   15.7324 N.3     1  UNL1       -0.2664
     19 C          63.0493   87.6468   16.9246 C.3     1  UNL1        0.0899
     20 C          64.4059   87.6141   14.7090 C.3     1  UNL1        0.0899
@<TRIPOS>BOND
     1     1     2    1
     2     2     3   ar
     3     3     4   ar
     4     4     8    1
     5     8     9    1
     6     9    10   ar
     7    10    11   ar
     8    11    12   ar
     9    12    13    1
    10    12    14   ar
    11    14    15   ar
    12    15    16    1
    13     4     5   ar
    14     5    17    1
    15    17    18    1
    16    18    19    1
    17    18    20    1
    18     5     6   ar
    19     6     7   ar
    20     7     2   ar
    21    15     9   ar
@<TRIPOS>MOLECULE
*****
 20 21 0 0 0
SMALL
GASTEIGER

@<TRIPOS>ATOM
      1 C          62.0384   84.4341    5.6213 C.3     1  UNL1        0.0522
      2 C          61.7974   84.9896    6.9936 C.ar    1  UNL1        0.0624
      3 C          62.7772   84.7164    8.0960 C.ar    1  UNL1        0.0519
      4 C          62.5362   85.2720    9.4684 C.ar    1  UNL1        0.1452
      5 C          61.3155   86.1008    9.7383 C.ar    1  UNL1        0.0475
      6 C          60.3357   86.3739    8.6358 C.ar    1  UNL1        0.0985
      7 N          60.5767   85.8184    7.2635 N.ar    1  UNL1       -0.2482
      8 O          63.5160   84.9988   10.5708 O.3     1  UNL1       -0.4540
      9 C          63.3497   83.7868   11.4388 C.ar    1  UNL1        0.1413
     10 C          63.1500   82.4381   10.8135 C.ar    1  UNL1        0.0380
     11 C          62.9836   81.2261   11.6815 C.ar    1  UNL1        0.0145
     12 C          63.0169   81.3629   13.1748 C.ar    1  UNL1        0.0576
     13 CL         62.8505   80.1509   14.0428 Cl      1  UNL1       -0.0823
     14 C          63.2165   82.7116   13.8002 C.ar    1  UNL1        0.0101
     15 C          63.3829   83.9236   12.9322 C.ar    1  UNL1        0.0135
     16 C          63.5826   85.2723   13.5576 C.3     1  UNL1        0.0343
     17 C          61.0745   86.6563   11.1106 C.3     1  UNL1        0.1039
     18 N          61.2361   88.1259   11.3638 N.3     1  UNL1       -0.2664
     19 C          62.6054   88.7081   11.5536 C.3     1  UNL1        0.0899
     20 C          60.0284   89.0134   11.4272 C.3     1  UNL1        0.0899
@<TRIPOS>BOND
     1     1     2    1
     2     2     3   ar
     3     3     4   ar
     4     4     8    1
     5     8     9    1
     6     9    10   ar
     7    10    11   ar
     8    11    12   ar
     9    12    13    1
    10    12    14   ar
    11    14    15   ar
    12    15    16    1
    13     4     5   ar
    14     5    17    1
    15    17    18    1
    16    18    19    1
    17    18    20    1
    18     5     6   ar
    19     6     7   ar
    20     7     2   ar
    21    15     9   ar
@<TRIPOS>MOLECULE
*****
 20 21 0 0 0
SMALL
GASTEIGER

@<TRIPOS>ATOM
      1 C          61.9037   81.0061   13.8376 C.3     1  UNL1        0.0522
      2 C          62.5968   82.3225   14.0287 C.ar    1  UNL1        0.0624
      3 C          62.3201   83.4591   13.0898 C.ar    1  UNL1        0.0519
      4 C          63.0132   84.7756   13.2809 C.ar    1  UNL1        0.1452
      5 C          63.9831   84.9554   14.4109 C.ar    1  UNL1        0.0475
      6 C          64.2599   83.8189   15.3497 C.ar    1  UNL1        0.0985
      7 N          63.5668   82.5024   15.1587 N.ar    1  UNL1       -0.2482
      8 O          62.7364   85.9122   12.3419 O.3     1  UNL1       -0.4540
      9 C          62.5497   85.6467   10.8775 C.ar    1  UNL1        0.1413
     10 C          63.4197   84.6431   10.1803 C.ar    1  UNL1        0.0380
     11 C          63.2330   84.3777    8.7158 C.ar    1  UNL1        0.0145
     12 C          62.1764   85.1158    7.9485 C.ar    1  UNL1        0.0576
     13 CL         61.9898   84.8503    6.4841 Cl      1  UNL1       -0.0823
     14 C          61.3065   86.1193    8.6456 C.ar    1  UNL1        0.0101
     15 C          61.4931   86.3848   10.1102 C.ar    1  UNL1        0.0135
     16 C          60.6231   87.3884   10.8073 C.3     1  UNL1        0.0343
     17 C          64.6762   86.2719   14.6019 C.3     1  UNL1        0.1039
     18 N          63.9824   87.3865   15.3274 N.3     1  UNL1       -0.2664
     19 C          63.2230   87.1018   16.5892 C.3     1  UNL1        0.0899
     20 C          64.0480   88.7858   14.7910 C.3     1  UNL1        0.0899
@<TRIPOS>BOND
     1     1     2    1
     2     2     3   ar
     3     3     4   ar
     4     4     8    1
     5     8     9    1
     6     9    10   ar
     7    10    11   ar
     8    11    12   ar
     9    12    13    1
    10    12    14   ar
    11    14    15   ar
    12    15    16    1
    13     4     5   ar
    14     5    17    1
    15    17    18    1
    16    18    19    1
    17    18    20    1
    18     5     6   ar
    19     6     7   ar
    20     7     2   ar
    21    15     9   ar
@<TRIPOS>MOLECULE
*****
 20 21 0 0 0
SMALL
GASTEIGER

@<TRIPOS>ATOM
      1 C          64.7195   86.4167   15.0877 C.3     1  UNL1        0.0522
      2 C          64.1106   87.4098   14.1428 C.ar    1  UNL1        0.0624
      3 C          64.2146   88.8786   14.4290 C.ar    1  UNL1        0.0519
      4 C          63.6057   89.8718   13.4841 C.ar    1  UNL1        0.1452
      5 C          62.8928   89.3962   12.2530 C.ar    1  UNL1        0.0475
      6 C          62.7889   87.9275   11.9669 C.ar    1  UNL1        0.0985
      7 N          63.3977   86.9343   12.9118 N.ar    1  UNL1       -0.2482
      8 O          63.7098   91.3406   13.7703 O.3     1  UNL1       -0.4540
      9 C          65.0017   91.9181   14.2676 C.ar    1  UNL1        0.1413
     10 C          65.2771   91.9817   15.7408 C.ar    1  UNL1        0.0380
     11 C          66.5690   92.5592   16.2380 C.ar    1  UNL1        0.0145
     12 C          67.5856   93.0732   15.2622 C.ar    1  UNL1        0.0576
     13 CL         68.8775   93.6508   15.7594 Cl      1  UNL1       -0.0823
     14 C          67.3103   93.0097   13.7891 C.ar    1  UNL1        0.0101
     15 C          66.0183   92.4321   13.2917 C.ar    1  UNL1        0.0135
     16 C          65.7430   92.3686   11.8186 C.3     1  UNL1        0.0343
     17 C          62.2840   90.3894   11.3081 C.3     1  UNL1        0.1039
     18 N          60.9394   90.1197   10.7005 N.3     1  UNL1       -0.2664
     19 C          60.8425   89.4704    9.3517 C.3     1  UNL1        0.0899
     20 C          59.6916   90.4992   11.4415 C.3     1  UNL1        0.0899
@<TRIPOS>BOND
     1     1     2    1
     2     2     3   ar
     3     3     4   ar
     4     4     8    1
     5     8     9    1
     6     9    10   ar
     7    10    11   ar
     8    11    12   ar
     9    12    13    1
    10    12    14   ar
    11    14    15   ar
    12    15    16    1
    13     4     5   ar
    14     5    17    1
    15    17    18    1
    16    18    19    1
    17    18    20    1
    18     5     6   ar
    19     6     7   ar
    20     7     2   ar
    21    15     9   ar
@<TRIPOS>MOLECULE
*****
 20 21 0 0 0
SMALL
GASTEIGER

@<TRIPOS>ATOM
      1 C          63.5158   81.3939   10.4382 C.3     1  UNL1        0.0522
      2 C          63.1530   82.2514   11.6143 C.ar    1  UNL1        0.0624
      3 C          63.1962   83.7460   11.4945 C.ar    1  UNL1        0.0519
      4 C          62.8334   84.6035   12.6705 C.ar    1  UNL1        0.1452
      5 C          62.4275   83.9664   13.9664 C.ar    1  UNL1        0.0475
      6 C          62.3844   82.4718   14.0862 C.ar    1  UNL1        0.0985
      7 N          62.7471   81.6144   12.9101 N.ar    1  UNL1       -0.2482
      8 O          62.8766   86.0981   12.5507 O.3     1  UNL1       -0.4540
      9 C          62.1544   86.7816   11.4277 C.ar    1  UNL1        0.1413
     10 C          61.3000   85.9824   10.4889 C.ar    1  UNL1        0.0380
     11 C          60.5778   86.6659    9.3659 C.ar    1  UNL1        0.0145
     12 C          60.7098   88.1487    9.1817 C.ar    1  UNL1        0.0576
     13 CL         59.9876   88.8322    8.0587 Cl      1  UNL1       -0.0823
     14 C          61.5641   88.9479   10.1205 C.ar    1  UNL1        0.0101
     15 C          62.2864   88.2644   11.2435 C.ar    1  UNL1        0.0135
     16 C          63.1407   89.0636   12.1823 C.3     1  UNL1        0.0343
     17 C          62.0648   84.8239   15.1425 C.3     1  UNL1        0.1039
     18 N          63.1425   85.4852   15.9493 N.3     1  UNL1       -0.2664
     19 C          62.8044   86.1490   17.2512 C.3     1  UNL1        0.0899
     20 C          64.5585   85.4828   15.4542 C.3     1  UNL1        0.0899
@<TRIPOS>BOND
     1     1     2    1
     2     2     3   ar
     3     3     4   ar
     4     4     8    1
     5     8     9    1
     6     9    10   ar
     7    10    11   ar
     8    11    12   ar
     9    12    13    1
    10    12    14   ar
    11    14    15   ar
    12    15    16    1
    13     4     5   ar
    14     5    17    1
    15    17    18    1
    16    18    19    1
    17    18    20    1
    18     5     6   ar
    19     6     7   ar
    20     7     2   ar
    21    15     9   ar
@<TRIPOS>MOLECULE
*****
 20 21 0 0 0
SMALL
GASTEIGER

@<TRIPOS>ATOM
      1 C          62.8095   84.9128    7.2263 C.3     1  UNL1        0.0522
      2 C          62.8234   84.9893    8.7242 C.ar    1  UNL1        0.0624
      3 C          62.2404   86.1836    9.4197 C.ar    1  UNL1        0.0519
      4 C          62.2543   86.2601   10.9176 C.ar    1  UNL1        0.1452
      5 C          62.8513   85.1424   11.7202 C.ar    1  UNL1        0.0475
      6 C          63.4344   83.9481   11.0248 C.ar    1  UNL1        0.0985
      7 N          63.4205   83.8715    9.5268 N.ar    1  UNL1       -0.2482
      8 O          61.6712   87.4545   11.6131 O.3     1  UNL1       -0.4540
      9 C          62.4851   88.7052   11.7653 C.ar    1  UNL1        0.1413
     10 C          63.4119   88.8592   12.9347 C.ar    1  UNL1        0.0380
     11 C          64.2258   90.1099   13.0869 C.ar    1  UNL1        0.0145
     12 C          64.1130   91.2066   12.0698 C.ar    1  UNL1        0.0576
     13 CL         64.9269   92.4573   12.2220 Cl      1  UNL1       -0.0823
     14 C          63.1863   91.0526   10.9004 C.ar    1  UNL1        0.0101
     15 C          62.3723   89.8019   10.7482 C.ar    1  UNL1        0.0135
     16 C          61.4455   89.6479    9.5788 C.3     1  UNL1        0.0343
     17 C          62.8653   85.2189   13.2182 C.3     1  UNL1        0.1039
     18 N          63.4557   84.0978   14.0210 N.3     1  UNL1       -0.2664
     19 C          64.9175   84.1049   14.3571 C.3     1  UNL1        0.0899
     20 C          62.5842   82.9696   14.4877 C.3     1  UNL1        0.0899
@<TRIPOS>BOND
     1     1     2    1
     2     2     3   ar
     3     3     4   ar
     4     4     8    1
     5     8     9    1
     6     9    10   ar
     7    10    11   ar
     8    11    12   ar
     9    12    13    1
    10    12    14   ar
    11    14    15   ar
    12    15    16    1
    13     4     5   ar
    14     5    17    1
    15    17    18    1
    16    18    19    1
    17    18    20    1
    18     5     6   ar
    19     6     7   ar
    20     7     2   ar
    21    15     9   ar
@<TRIPOS>MOLECULE
*****
 20 21 0 0 0
SMALL
GASTEIGER

@<TRIPOS>ATOM
      1 C          63.4303   82.7838   13.6086 C.3     1  UNL1        0.0522
      2 C          63.2127   83.5874   12.3608 C.ar    1  UNL1        0.0624
      3 C          62.4671   84.8872   12.4264 C.ar    1  UNL1        0.0519
      4 C          62.2496   85.6909   11.1787 C.ar    1  UNL1        0.1452
      5 C          62.7777   85.1946    9.8654 C.ar    1  UNL1        0.0475
      6 C          63.5233   83.8948    9.7998 C.ar    1  UNL1        0.0985
      7 N          63.7408   83.0912   11.0475 N.ar    1  UNL1       -0.2482
      8 O          61.5039   86.9908   11.2443 O.3     1  UNL1       -0.4540
      9 C          62.2477   88.2707   11.4861 C.ar    1  UNL1        0.1413
     10 C          63.2033   88.3769   12.6375 C.ar    1  UNL1        0.0380
     11 C          63.9471   89.6568   12.8793 C.ar    1  UNL1        0.0145
     12 C          63.7354   90.8306   11.9697 C.ar    1  UNL1        0.0576
     13 CL         64.4792   92.1105   12.2115 Cl      1  UNL1       -0.0823
     14 C          62.7799   90.7245   10.8183 C.ar    1  UNL1        0.0101
     15 C          62.0361   89.4445   10.5765 C.ar    1  UNL1        0.0135
     16 C          61.0806   89.3384    9.4251 C.3     1  UNL1        0.0343
     17 C          62.5601   85.9983    8.6176 C.3     1  UNL1        0.1039
     18 N          61.4891   85.5997    7.6460 N.3     1  UNL1       -0.2664
     19 C          60.0884   86.1057    7.8247 C.3     1  UNL1        0.0899
     20 C          61.8188   84.6952    6.4957 C.3     1  UNL1        0.0899
@<TRIPOS>BOND
     1     1     2    1
     2     2     3   ar
     3     3     4   ar
     4     4     8    1
     5     8     9    1
     6     9    10   ar
     7    10    11   ar
     8    11    12   ar
     9    12    13    1
    10    12    14   ar
    11    14    15   ar
    12    15    16    1
    13     4     5   ar
    14     5    17    1
    15    17    18    1
    16    18    19    1
    17    18    20    1
    18     5     6   ar
    19     6     7   ar
    20     7     2   ar
    21    15     9   ar
@<TRIPOS>MOLECULE
*****
 20 21 0 0 0
SMALL
GASTEIGER

@<TRIPOS>ATOM
      1 C          62.7705   85.1124    7.4605 C.3     1  UNL1        0.0522
      2 C          62.7950   85.1700    8.9591 C.ar    1  UNL1        0.0624
      3 C          62.3467   86.4127    9.6694 C.ar    1  UNL1        0.0519
      4 C          62.3712   86.4703   11.1681 C.ar    1  UNL1        0.1452
      5 C          62.8440   85.2851   11.9565 C.ar    1  UNL1        0.0475
      6 C          63.2923   84.0423   11.2463 C.ar    1  UNL1        0.0985
      7 N          63.2678   83.9847    9.7476 N.ar    1  UNL1       -0.2482
      8 O          61.9229   87.7132   11.8784 O.3     1  UNL1       -0.4540
      9 C          62.6392   89.0102   11.6447 C.ar    1  UNL1        0.1413
     10 C          62.3977   89.7835   10.3823 C.ar    1  UNL1        0.0380
     11 C          63.1139   91.0806   10.1486 C.ar    1  UNL1        0.0145
     12 C          64.0717   91.6044   11.1774 C.ar    1  UNL1        0.0576
     13 CL         64.7879   92.9014   10.9438 Cl      1  UNL1       -0.0823
     14 C          64.3132   90.8311   12.4398 C.ar    1  UNL1        0.0101
     15 C          63.5969   89.5340   12.6735 C.ar    1  UNL1        0.0135
     16 C          63.8384   88.7607   13.9359 C.3     1  UNL1        0.0343
     17 C          62.8685   85.3426   13.4552 C.3     1  UNL1        0.1039
     18 N          63.4578   84.2081   14.2398 N.3     1  UNL1       -0.2664
     19 C          64.9335   84.1669   14.5057 C.3     1  UNL1        0.0899
     20 C          62.5714   83.1148   14.7586 C.3     1  UNL1        0.0899
@<TRIPOS>BOND
     1     1     2    1
     2     2     3   ar
     3     3     4   ar
     4     4     8    1
     5     8     9    1
     6     9    10   ar
     7    10    11   ar
     8    11    12   ar
     9    12    13    1
    10    12    14   ar
    11    14    15   ar
    12    15    16    1
    13     4     5   ar
    14     5    17    1
    15    17    18    1
    16    18    19    1
    17    18    20    1
    18     5     6   ar
    19     6     7   ar
    20     7     2   ar
    21    15     9   ar
@<TRIPOS>MOLECULE
*****
 20 21 0 0 0
SMALL
GASTEIGER

@<TRIPOS>ATOM
      1 C          65.0409   90.3192   14.7096 C.3     1  UNL1        0.0522
      2 C          64.2836   90.1681   13.4236 C.ar    1  UNL1        0.0624
      3 C          63.4536   88.9424   13.1816 C.ar    1  UNL1        0.0519
      4 C          62.6963   88.7913   11.8957 C.ar    1  UNL1        0.1452
      5 C          62.7691   89.8659   10.8517 C.ar    1  UNL1        0.0475
      6 C          63.5991   91.0916   11.0937 C.ar    1  UNL1        0.0985
      7 N          64.3564   91.2427   12.3797 N.ar    1  UNL1       -0.2482
      8 O          61.8663   87.5655   11.6537 O.3     1  UNL1       -0.4540
      9 C          62.5235   86.2200   11.5657 C.ar    1  UNL1        0.1413
     10 C          63.0891   85.5795   12.7986 C.ar    1  UNL1        0.0380
     11 C          63.7463   84.2341   12.7106 C.ar    1  UNL1        0.0145
     12 C          63.8380   83.5291   11.3898 C.ar    1  UNL1        0.0576
     13 CL         64.4952   82.1836   11.3018 Cl      1  UNL1       -0.0823
     14 C          63.2724   84.1695   10.1569 C.ar    1  UNL1        0.0101
     15 C          62.6151   85.5150   10.2449 C.ar    1  UNL1        0.0135
     16 C          62.0496   86.1555    9.0120 C.3     1  UNL1        0.0343
     17 C          62.0118   89.7148    9.5657 C.3     1  UNL1        0.1039
     18 N          60.5120   89.6920    9.5768 N.3     1  UNL1       -0.2664
     19 C          59.7638   89.0291    8.4585 C.3     1  UNL1        0.0899
     20 C          59.7605   90.3321   10.7062 C.3     1  UNL1        0.0899
@<TRIPOS>BOND
     1     1     2    1
     2     2     3   ar
     3     3     4   ar
     4     4     8    1
     5     8     9    1
     6     9    10   ar
     7    10    11   ar
     8    11    12   ar
     9    12    13    1
    10    12    14   ar
    11    14    15   ar
    12    15    16    1
    13     4     5   ar
    14     5    17    1
    15    17    18    1
    16    18    19    1
    17    18    20    1
    18     5     6   ar
    19     6     7   ar
    20     7     2   ar
    21    15     9   ar
