@<TRIPOS>MOLECULE
*****
 36 39 0 0 0
SMALL
GASTEIGER

@<TRIPOS>ATOM
      1 C          62.2042   87.9708   10.6240 C.ar    1  UNL1        0.0635
      2 C          63.1924   88.9736   11.1416 C.ar    1  UNL1        0.0171
      3 C          63.0395   90.4251   10.7949 C.ar    1  UNL1        0.0190
      4 C          61.8986   90.8735    9.9306 C.ar    1  UNL1        0.0023
      5 C          60.9105   89.8707    9.4129 C.ar    1  UNL1        0.0116
      6 C          61.0633   88.4193    9.7596 C.ar    1  UNL1        0.0821
      7 C          62.4694   81.6830   13.3886 C.3     1  UNL1        0.0948
      8 C          62.8157   82.1655   12.0112 C.2     1  UNL1        0.2264
      9 O          63.3148   81.1966   10.9806 O.2     1  UNL1       -0.2748
     10 N          62.6628   83.6168   11.6644 N.am    1  UNL1       -0.2730
     11 C          62.1637   84.5856   12.6950 C.3     1  UNL1        0.1156
     12 C          62.0108   86.0370   12.3482 C.3     1  UNL1        0.1197
     13 N          62.3571   86.5195   10.9707 N.am    1  UNL1       -0.2549
     14 C          62.8563   85.5506    9.9401 C.2     1  UNL1        0.2454
     15 O          63.2026   86.0331    8.5627 O.2     1  UNL1       -0.2728
     16 C          63.0091   84.0993   10.2870 C.3     1  UNL1        0.1294
     17 C          63.4633   84.0747    8.8576 C.3     1  UNL1        0.0293
     18 C          63.3197   82.6395   10.1373 C.3     1  UNL1        0.0293
     19 C          64.0276   91.4279   11.3125 C.ar    1  UNL1        0.0829
     20 C          64.7490   92.4580   10.4949 C.ar    1  UNL1        0.0246
     21 C          65.6350   93.2434   11.4158 C.ar    1  UNL1        0.0933
     22 C          65.4613   92.6987   12.8026 C.ar    1  UNL1        0.1178
     23 C          66.0794   93.0794   14.1152 C.ar    1  UNL1        0.1450
     24 N          67.0728   94.2015   14.1790 N.pl3   1  UNL1       -0.3414
     25 N          65.7041   92.3381   15.3640 N.ar    1  UNL1       -0.2065
     26 C          64.7106   91.2161   15.3001 C.ar    1  UNL1        0.2211
     27 N          64.0926   90.8353   13.9875 N.ar    1  UNL1       -0.1422
     28 N          64.4679   91.5766   12.7388 N.ar    1  UNL1       -0.2255
     29 H          67.3192   94.6881   13.3593 H       1  UNL1        0.1438
     30 H          67.4785   94.4514   15.0405 H       1  UNL1        0.1438
     31 C          66.5365   94.3749   11.0195 C.3     1  UNL1        0.4201
     32 F          67.4380   95.5065   10.6233 F       1  UNL1       -0.1658
     33 F          65.5566   95.3560   11.5916 F       1  UNL1       -0.1658
     34 F          67.5164   93.3939   10.4475 F       1  UNL1       -0.1658
     35 C          60.0752   87.4165    9.2420 C.1     1  UNL1        0.1017
     36 N          59.0872   86.4137    8.7242 N.1     1  UNL1       -0.1908
@<TRIPOS>BOND
     1     7     8    1
     2     8     9    2
     3     8    10   am
     4    10    11    1
     5    11    12    1
     6    12    13    1
     7    13     1    1
     8     1     2   ar
     9     2     3   ar
    10     3    19    1
    11    19    20   ar
    12    20    21   ar
    13    21    31    1
    14    31    32    1
    15    31    33    1
    16    31    34    1
    17    21    22   ar
    18    22    23   ar
    19    23    24    1
    20    23    25   ar
    21    25    26   ar
    22    26    27   ar
    23    27    28   ar
    24     3     4   ar
    25     4     5   ar
    26     5     6   ar
    27     6    35    1
    28    35    36    3
    29    13    14   am
    30    14    15    2
    31    14    16    1
    32    16    17    1
    33    16    18    1
    34    16    10    1
    35     6     1   ar
    36    28    19   ar
    37    28    22   ar
    38    24    29    1
    39    24    30    1
@<TRIPOS>MOLECULE
*****
 36 39 0 0 0
SMALL
GASTEIGER

@<TRIPOS>ATOM
      1 C          62.4852   87.5336   11.1713 C.ar    1  UNL1        0.0635
      2 C          63.3857   88.4355   11.9623 C.ar    1  UNL1        0.0171
      3 C          63.2198   89.9239   11.8763 C.ar    1  UNL1        0.0190
      4 C          62.1535   90.5102   10.9994 C.ar    1  UNL1        0.0023
      5 C          61.2530   89.6083   10.2083 C.ar    1  UNL1        0.0116
      6 C          61.4189   88.1200   10.2943 C.ar    1  UNL1        0.0821
      7 C          63.1153   80.7486   10.2672 C.3     1  UNL1        0.0948
      8 C          63.1489   81.5803   11.5151 C.2     1  UNL1        0.2264
      9 O          63.3485   80.9237   12.8489 O.2     1  UNL1       -0.2748
     10 N          62.9830   83.0686   11.4291 N.am    1  UNL1       -0.2730
     11 C          62.7835   83.7252   10.0953 C.3     1  UNL1        0.1156
     12 C          62.6175   85.2136   10.0094 C.3     1  UNL1        0.1197
     13 N          62.6511   86.0453   11.2573 N.am    1  UNL1       -0.2549
     14 C          62.8507   85.3887   12.5910 C.2     1  UNL1        0.2454
     15 O          62.8843   86.2203   13.8389 O.2     1  UNL1       -0.2728
     16 C          63.0166   83.9003   12.6770 C.3     1  UNL1        0.1294
     17 C          63.1204   84.2583   14.1299 C.3     1  UNL1        0.0293
     18 C          63.2186   82.5364   13.2675 C.3     1  UNL1        0.0293
     19 C          64.1202   90.8258   12.6674 C.ar    1  UNL1        0.0829
     20 C          64.4358   90.6960   14.1281 C.ar    1  UNL1        0.0246
     21 C          65.3738   91.8059   14.5000 C.ar    1  UNL1        0.0933
     22 C          65.6380   92.6216   13.2692 C.ar    1  UNL1        0.1178
     23 C          66.4840   93.8376   13.0335 C.ar    1  UNL1        0.1450
     24 N          67.2587   94.4433   14.1661 N.pl3   1  UNL1       -0.3414
     25 N          66.5552   94.4479   11.6651 N.ar    1  UNL1       -0.2065
     26 C          65.7804   93.8421   10.5325 C.ar    1  UNL1        0.2211
     27 N          64.9345   92.6261   10.7682 N.ar    1  UNL1       -0.1422
     28 N          64.8633   92.0158   12.1366 N.ar    1  UNL1       -0.2255
     29 H          67.2120   94.0427   15.0642 H       1  UNL1        0.1438
     30 H          67.8139   95.2414   14.0114 H       1  UNL1        0.1438
     31 C          65.9470   92.0561   15.8634 C.3     1  UNL1        0.4201
     32 F          66.5203   92.3064   17.2268 F       1  UNL1       -0.1658
     33 F          67.2748   91.5333   15.4011 F       1  UNL1       -0.1658
     34 F          64.6193   92.5789   16.3256 F       1  UNL1       -0.1658
     35 C          60.5184   87.2180    9.5032 C.1     1  UNL1        0.1017
     36 N          59.6180   86.3163    8.7122 N.1     1  UNL1       -0.1908
@<TRIPOS>BOND
     1     7     8    1
     2     8     9    2
     3     8    10   am
     4    10    11    1
     5    11    12    1
     6    12    13    1
     7    13     1    1
     8     1     2   ar
     9     2     3   ar
    10     3    19    1
    11    19    20   ar
    12    20    21   ar
    13    21    31    1
    14    31    32    1
    15    31    33    1
    16    31    34    1
    17    21    22   ar
    18    22    23   ar
    19    23    24    1
    20    23    25   ar
    21    25    26   ar
    22    26    27   ar
    23    27    28   ar
    24     3     4   ar
    25     4     5   ar
    26     5     6   ar
    27     6    35    1
    28    35    36    3
    29    13    14   am
    30    14    15    2
    31    14    16    1
    32    16    17    1
    33    16    18    1
    34    16    10    1
    35     6     1   ar
    36    28    19   ar
    37    28    22   ar
    38    24    29    1
    39    24    30    1
@<TRIPOS>MOLECULE
*****
 36 39 0 0 0
SMALL
GASTEIGER

@<TRIPOS>ATOM
      1 C          62.4536   87.0724   10.9211 C.ar    1  UNL1        0.0635
      2 C          63.2002   87.9689   11.8639 C.ar    1  UNL1        0.0171
      3 C          63.0547   89.4580   11.7565 C.ar    1  UNL1        0.0190
      4 C          62.1626   90.0505   10.7063 C.ar    1  UNL1        0.0023
      5 C          61.4160   89.1540    9.7634 C.ar    1  UNL1        0.0116
      6 C          61.5615   87.6650    9.8708 C.ar    1  UNL1        0.0821
      7 C          63.2888   80.2967   10.1201 C.3     1  UNL1        0.0948
      8 C          63.0358   81.1162   11.3507 C.2     1  UNL1        0.2264
      9 O          62.9284   80.4467   12.6887 O.2     1  UNL1       -0.2748
     10 N          62.8903   82.6052   11.2433 N.am    1  UNL1       -0.2730
     11 C          62.9977   83.2747    9.9053 C.3     1  UNL1        0.1156
     12 C          62.8521   84.7639    9.7979 C.3     1  UNL1        0.1197
     13 N          62.5991   85.5834   11.0285 N.am    1  UNL1       -0.2549
     14 C          62.4917   84.9139   12.3665 C.2     1  UNL1        0.2454
     15 O          62.2387   85.7334   13.5971 O.2     1  UNL1       -0.2728
     16 C          62.6373   83.4248   12.4739 C.3     1  UNL1        0.1294
     17 C          62.4071   83.7687   13.9157 C.3     1  UNL1        0.0293
     18 C          62.7029   82.0552   13.0820 C.3     1  UNL1        0.0293
     19 C          63.8013   90.3545   12.6994 C.ar    1  UNL1        0.0829
     20 C          64.8716   91.3352   12.3220 C.ar    1  UNL1        0.0246
     21 C          65.3404   92.0144   13.5745 C.ar    1  UNL1        0.0933
     22 C          64.5598   91.4534   14.7261 C.ar    1  UNL1        0.1178
     23 C          64.5923   91.7442   16.1972 C.ar    1  UNL1        0.1450
     24 N          65.5435   92.7702   16.7381 N.pl3   1  UNL1       -0.3414
     25 N          63.6735   91.0091   17.1275 N.ar    1  UNL1       -0.2065
     26 C          62.7223   89.9831   16.5866 C.ar    1  UNL1        0.2211
     27 N          62.6898   89.6923   15.1154 N.ar    1  UNL1       -0.1422
     28 N          63.6085   90.4275   14.1852 N.ar    1  UNL1       -0.2255
     29 H          66.1466   93.2527   16.1275 H       1  UNL1        0.1438
     30 H          65.5649   92.9610   17.7037 H       1  UNL1        0.1438
     31 C          66.4032   93.0694   13.6606 C.3     1  UNL1        0.4201
     32 F          67.4660   94.1245   13.7465 F       1  UNL1       -0.1658
     33 F          65.5417   94.0024   12.8621 F       1  UNL1       -0.1658
     34 F          67.2646   92.1366   14.4589 F       1  UNL1       -0.1658
     35 C          60.8149   86.7685    8.9280 C.1     1  UNL1        0.1017
     36 N          60.0684   85.8720    7.9852 N.1     1  UNL1       -0.1908
@<TRIPOS>BOND
     1     7     8    1
     2     8     9    2
     3     8    10   am
     4    10    11    1
     5    11    12    1
     6    12    13    1
     7    13     1    1
     8     1     2   ar
     9     2     3   ar
    10     3    19    1
    11    19    20   ar
    12    20    21   ar
    13    21    31    1
    14    31    32    1
    15    31    33    1
    16    31    34    1
    17    21    22   ar
    18    22    23   ar
    19    23    24    1
    20    23    25   ar
    21    25    26   ar
    22    26    27   ar
    23    27    28   ar
    24     3     4   ar
    25     4     5   ar
    26     5     6   ar
    27     6    35    1
    28    35    36    3
    29    13    14   am
    30    14    15    2
    31    14    16    1
    32    16    17    1
    33    16    18    1
    34    16    10    1
    35     6     1   ar
    36    28    19   ar
    37    28    22   ar
    38    24    29    1
    39    24    30    1
@<TRIPOS>MOLECULE
*****
 36 39 0 0 0
SMALL
GASTEIGER

@<TRIPOS>ATOM
      1 C          62.3358   88.9312   11.6311 C.ar    1  UNL1        0.0635
      2 C          62.8451   87.5293   11.7905 C.ar    1  UNL1        0.0171
      3 C          61.9230   86.3668   11.5701 C.ar    1  UNL1        0.0190
      4 C          60.4919   86.6062   11.1904 C.ar    1  UNL1        0.0023
      5 C          59.9826   88.0081   11.0310 C.ar    1  UNL1        0.0116
      6 C          60.9045   89.1706   11.2514 C.ar    1  UNL1        0.0821
      7 C          66.3382   94.5140   11.3808 C.3     1  UNL1        0.0948
      8 C          66.0239   93.5810   12.5126 C.2     1  UNL1        0.2264
      9 O          66.6316   93.8105   13.8646 O.2     1  UNL1       -0.2748
     10 N          65.1019   92.4186   12.2922 N.am    1  UNL1       -0.2730
     11 C          64.4942   92.1891   10.9401 C.3     1  UNL1        0.1156
     12 C          63.5721   91.0266   10.7198 C.3     1  UNL1        0.1197
     13 N          63.2578   90.0936   11.8515 N.am    1  UNL1       -0.2549
     14 C          63.8655   90.3231   13.2036 C.2     1  UNL1        0.2454
     15 O          63.5511   89.3902   14.3353 O.2     1  UNL1       -0.2728
     16 C          64.7875   91.4856   13.4239 C.3     1  UNL1        0.1294
     17 C          64.7942   90.8838   14.7979 C.3     1  UNL1        0.0293
     18 C          65.7118   92.4390   14.1214 C.3     1  UNL1        0.0293
     19 C          62.4323   84.9649   11.7296 C.ar    1  UNL1        0.0829
     20 C          62.6027   83.9584   10.6305 C.ar    1  UNL1        0.0246
     21 C          63.1363   82.6949   11.2377 C.ar    1  UNL1        0.0933
     22 C          63.2957   82.9205   12.7121 C.ar    1  UNL1        0.1178
     23 C          63.7809   82.0296   13.8171 C.ar    1  UNL1        0.1450
     24 N          64.2160   80.6267   13.5131 N.pl3   1  UNL1       -0.3414
     25 N          63.8309   82.5418   15.2260 N.ar    1  UNL1       -0.2065
     26 C          63.3958   83.9447   15.5300 C.ar    1  UNL1        0.2211
     27 N          62.9107   84.8356   14.4250 N.ar    1  UNL1       -0.1422
     28 N          62.8606   84.3234   13.0161 N.ar    1  UNL1       -0.2255
     29 H          64.1831   80.2906   12.5883 H       1  UNL1        0.1438
     30 H          64.5344   80.0420   14.2383 H       1  UNL1        0.1438
     31 C          63.4546   81.4281   10.5001 C.3     1  UNL1        0.4201
     32 F          63.7729   80.1613    9.7626 F       1  UNL1       -0.1658
     33 F          62.3220   80.7365   11.1992 F       1  UNL1       -0.1658
     34 F          64.5872   82.1198    9.8011 F       1  UNL1       -0.1658
     35 C          60.3952   90.5724   11.0919 C.1     1  UNL1        0.1017
     36 N          59.8861   91.9743   10.9326 N.1     1  UNL1       -0.1908
@<TRIPOS>BOND
     1     7     8    1
     2     8     9    2
     3     8    10   am
     4    10    11    1
     5    11    12    1
     6    12    13    1
     7    13     1    1
     8     1     2   ar
     9     2     3   ar
    10     3    19    1
    11    19    20   ar
    12    20    21   ar
    13    21    31    1
    14    31    32    1
    15    31    33    1
    16    31    34    1
    17    21    22   ar
    18    22    23   ar
    19    23    24    1
    20    23    25   ar
    21    25    26   ar
    22    26    27   ar
    23    27    28   ar
    24     3     4   ar
    25     4     5   ar
    26     5     6   ar
    27     6    35    1
    28    35    36    3
    29    13    14   am
    30    14    15    2
    31    14    16    1
    32    16    17    1
    33    16    18    1
    34    16    10    1
    35     6     1   ar
    36    28    19   ar
    37    28    22   ar
    38    24    29    1
    39    24    30    1
@<TRIPOS>MOLECULE
*****
 36 39 0 0 0
SMALL
GASTEIGER

@<TRIPOS>ATOM
      1 C          57.4369   93.5762   -2.0628 C.ar    1  UNL1        0.0635
      2 C          58.7495   93.1777   -1.4560 C.ar    1  UNL1        0.0171
      3 C          59.4743   94.1260   -0.5473 C.ar    1  UNL1        0.0190
      4 C          58.8865   95.4725   -0.2455 C.ar    1  UNL1        0.0023
      5 C          57.5738   95.8709   -0.8524 C.ar    1  UNL1        0.0116
      6 C          56.8490   94.9228   -1.7610 C.ar    1  UNL1        0.0821
      7 C          53.7885   88.6182   -5.1218 C.3     1  UNL1        0.0948
      8 C          54.5379   89.7832   -5.6973 C.2     1  UNL1        0.2264
      9 O          54.5625   89.9999   -7.1813 O.2     1  UNL1       -0.2748
     10 N          55.2626   90.7314   -4.7887 N.am    1  UNL1       -0.2730
     11 C          55.2380   90.5146   -3.3046 C.3     1  UNL1        0.1156
     12 C          55.9628   91.4630   -2.3960 C.3     1  UNL1        0.1197
     13 N          56.7122   92.6280   -2.9715 N.am    1  UNL1       -0.2549
     14 C          56.7368   92.8447   -4.4555 C.2     1  UNL1        0.2454
     15 O          57.4862   94.0098   -5.0310 O.2     1  UNL1       -0.2728
     16 C          56.0120   91.8965   -5.3641 C.3     1  UNL1        0.1294
     17 C          56.5780   92.8468   -6.3773 C.3     1  UNL1        0.0293
     18 C          55.4839   91.2783   -6.6246 C.3     1  UNL1        0.0293
     19 C          60.7870   93.7275    0.0595 C.ar    1  UNL1        0.0829
     20 C          60.9754   92.7936    1.2181 C.ar    1  UNL1        0.0246
     21 C          62.4465   92.6820    1.4889 C.ar    1  UNL1        0.0933
     22 C          63.1673   93.5469    0.4977 C.ar    1  UNL1        0.1178
     23 C          64.6250   93.8295    0.2855 C.ar    1  UNL1        0.1450
     24 N          65.6507   93.1833    1.1689 N.pl3   1  UNL1       -0.3414
     25 N          65.0571   94.7584   -0.8102 N.ar    1  UNL1       -0.2065
     26 C          64.0314   95.4046   -1.6936 C.ar    1  UNL1        0.2211
     27 N          62.5736   95.1219   -1.4814 N.ar    1  UNL1       -0.1422
     28 N          62.1416   94.1931   -0.3857 N.ar    1  UNL1       -0.2255
     29 H          65.3671   92.5737    1.8880 H       1  UNL1        0.1438
     30 H          66.6074   93.3689    1.0296 H       1  UNL1        0.1438
     31 C          63.0848   91.8513    2.5624 C.3     1  UNL1        0.4201
     32 F          63.7232   91.0206    3.6360 F       1  UNL1       -0.1658
     33 F          63.5927   93.0976    3.2249 F       1  UNL1       -0.1658
     34 F          62.5771   90.6050    1.9000 F       1  UNL1       -0.1658
     35 C          55.5364   95.3212   -2.3679 C.1     1  UNL1        0.1017
     36 N          54.2238   95.7195   -2.9747 N.1     1  UNL1       -0.1908
@<TRIPOS>BOND
     1     7     8    1
     2     8     9    2
     3     8    10   am
     4    10    11    1
     5    11    12    1
     6    12    13    1
     7    13     1    1
     8     1     2   ar
     9     2     3   ar
    10     3    19    1
    11    19    20   ar
    12    20    21   ar
    13    21    31    1
    14    31    32    1
    15    31    33    1
    16    31    34    1
    17    21    22   ar
    18    22    23   ar
    19    23    24    1
    20    23    25   ar
    21    25    26   ar
    22    26    27   ar
    23    27    28   ar
    24     3     4   ar
    25     4     5   ar
    26     5     6   ar
    27     6    35    1
    28    35    36    3
    29    13    14   am
    30    14    15    2
    31    14    16    1
    32    16    17    1
    33    16    18    1
    34    16    10    1
    35     6     1   ar
    36    28    19   ar
    37    28    22   ar
    38    24    29    1
    39    24    30    1
@<TRIPOS>MOLECULE
*****
 36 39 0 0 0
SMALL
GASTEIGER

@<TRIPOS>ATOM
      1 C          63.7949   88.4093   14.5741 C.ar    1  UNL1        0.0635
      2 C          63.7134   87.0537   13.9371 C.ar    1  UNL1        0.0171
      3 C          63.2951   85.8659   14.7521 C.ar    1  UNL1        0.0190
      4 C          62.9582   86.0338   16.2041 C.ar    1  UNL1        0.0023
      5 C          63.0396   87.3894   16.8411 C.ar    1  UNL1        0.0116
      6 C          63.4580   88.5771   16.0261 C.ar    1  UNL1        0.0821
      7 C          66.5629   94.0598   11.8065 C.3     1  UNL1        0.0948
      8 C          65.4684   93.1601   11.3139 C.2     1  UNL1        0.2264
      9 O          64.7924   93.4481   10.0062 O.2     1  UNL1       -0.2748
     10 N          65.0501   91.9724   12.1289 N.am    1  UNL1       -0.2730
     11 C          65.7261   91.6844   13.4366 C.3     1  UNL1        0.1156
     12 C          65.3077   90.4966   14.2517 C.3     1  UNL1        0.1197
     13 N          64.2132   89.5969   13.7590 N.am    1  UNL1       -0.2549
     14 C          63.5372   89.8850   12.4513 C.2     1  UNL1        0.2454
     15 O          62.4427   88.9853   11.9587 O.2     1  UNL1       -0.2728
     16 C          63.9556   91.0727   11.6363 C.3     1  UNL1        0.1294
     17 C          62.8763   90.5186   10.7542 C.3     1  UNL1        0.0293
     18 C          63.9991   92.0679   10.5149 C.3     1  UNL1        0.0293
     19 C          63.2136   84.5103   14.1151 C.ar    1  UNL1        0.0829
     20 C          63.0532   83.2052   14.8369 C.ar    1  UNL1        0.0246
     21 C          63.0188   82.1102   13.8123 C.ar    1  UNL1        0.0933
     22 C          63.1578   82.7385   12.4574 C.ar    1  UNL1        0.1178
     23 C          63.1903   82.1516   11.0774 C.ar    1  UNL1        0.1450
     24 N          63.0699   80.6682   10.8902 N.pl3   1  UNL1       -0.3414
     25 N          63.3433   83.0480    9.8846 N.ar    1  UNL1       -0.2065
     26 C          63.4637   84.5314   10.0717 C.ar    1  UNL1        0.2211
     27 N          63.4312   85.1184   11.4517 N.ar    1  UNL1       -0.1422
     28 N          63.2782   84.2219   12.6445 N.ar    1  UNL1       -0.2255
     29 H          62.9695   80.0798   11.6732 H       1  UNL1        0.1438
     30 H          63.0912   80.2830    9.9845 H       1  UNL1        0.1438
     31 C          62.8711   80.6441   14.0933 C.3     1  UNL1        0.4201
     32 F          62.7236   79.1780   14.3743 F       1  UNL1       -0.1658
     33 F          64.3600   80.4792   14.0150 F       1  UNL1       -0.1658
     34 F          61.3824   80.8090   14.1717 F       1  UNL1       -0.1658
     35 C          63.5394   89.9327   16.6631 C.1     1  UNL1        0.1017
     36 N          63.6207   91.2882   17.3000 N.1     1  UNL1       -0.1908
@<TRIPOS>BOND
     1     7     8    1
     2     8     9    2
     3     8    10   am
     4    10    11    1
     5    11    12    1
     6    12    13    1
     7    13     1    1
     8     1     2   ar
     9     2     3   ar
    10     3    19    1
    11    19    20   ar
    12    20    21   ar
    13    21    31    1
    14    31    32    1
    15    31    33    1
    16    31    34    1
    17    21    22   ar
    18    22    23   ar
    19    23    24    1
    20    23    25   ar
    21    25    26   ar
    22    26    27   ar
    23    27    28   ar
    24     3     4   ar
    25     4     5   ar
    26     5     6   ar
    27     6    35    1
    28    35    36    3
    29    13    14   am
    30    14    15    2
    31    14    16    1
    32    16    17    1
    33    16    18    1
    34    16    10    1
    35     6     1   ar
    36    28    19   ar
    37    28    22   ar
    38    24    29    1
    39    24    30    1
@<TRIPOS>MOLECULE
*****
 36 39 0 0 0
SMALL
GASTEIGER

@<TRIPOS>ATOM
      1 C          63.1697   87.1892   12.4590 C.ar    1  UNL1        0.0635
      2 C          63.7955   88.5476   12.5732 C.ar    1  UNL1        0.0171
      3 C          64.5296   88.9326   13.8234 C.ar    1  UNL1        0.0190
      4 C          64.6379   87.9591   14.9594 C.ar    1  UNL1        0.0023
      5 C          64.0120   86.6006   14.8452 C.ar    1  UNL1        0.0116
      6 C          63.2780   86.2157   13.5951 C.ar    1  UNL1        0.0821
      7 C          60.7935   84.5904    6.5557 C.3     1  UNL1        0.0948
      8 C          60.2336   85.6497    7.4581 C.2     1  UNL1        0.2264
      9 O          58.9397   86.3241    7.1103 O.2     1  UNL1       -0.2748
     10 N          60.9676   86.0345    8.7083 N.am    1  UNL1       -0.2730
     11 C          62.2615   85.3601    9.0561 C.3     1  UNL1        0.1156
     12 C          62.9956   85.7450   10.3064 C.3     1  UNL1        0.1197
     13 N          62.4357   86.8044   11.2088 N.am    1  UNL1       -0.2549
     14 C          61.1418   87.4788   10.8610 C.2     1  UNL1        0.2454
     15 O          60.5819   88.5381   11.7634 O.2     1  UNL1       -0.2728
     16 C          60.4078   87.0939    9.6108 C.3     1  UNL1        0.1294
     17 C          59.4812   88.1465   10.1432 C.3     1  UNL1        0.0293
     18 C          59.3520   87.0746    8.5455 C.3     1  UNL1        0.0293
     19 C          65.1554   90.2910   13.9376 C.ar    1  UNL1        0.0829
     20 C          65.9280   90.8098   15.1140 C.ar    1  UNL1        0.0246
     21 C          66.3686   92.2086   14.7988 C.ar    1  UNL1        0.0933
     22 C          65.8683   92.5543   13.4276 C.ar    1  UNL1        0.1178
     23 C          65.9986   93.7951   12.5949 C.ar    1  UNL1        0.1450
     24 N          66.7483   94.9802   13.1272 N.pl3   1  UNL1       -0.3414
     25 N          65.3791   93.8507   11.2300 N.ar    1  UNL1       -0.2065
     26 C          64.6293   92.6656   10.6977 C.ar    1  UNL1        0.2211
     27 N          64.4990   91.4248   11.5304 N.ar    1  UNL1       -0.1422
     28 N          65.1185   91.3691   12.8953 N.ar    1  UNL1       -0.2255
     29 H          67.1549   94.9436   14.0231 H       1  UNL1        0.1438
     30 H          66.8338   95.7946   12.5807 H       1  UNL1        0.1438
     31 C          67.1690   93.1044   15.6971 C.3     1  UNL1        0.4201
     32 F          67.9694   94.0002   16.5953 F       1  UNL1       -0.1658
     33 F          68.2885   93.1051   14.6988 F       1  UNL1       -0.1658
     34 F          66.0495   93.1037   16.6953 F       1  UNL1       -0.1658
     35 C          62.6522   84.8573   13.4809 C.1     1  UNL1        0.1017
     36 N          62.0265   83.4988   13.3668 N.1     1  UNL1       -0.1908
@<TRIPOS>BOND
     1     7     8    1
     2     8     9    2
     3     8    10   am
     4    10    11    1
     5    11    12    1
     6    12    13    1
     7    13     1    1
     8     1     2   ar
     9     2     3   ar
    10     3    19    1
    11    19    20   ar
    12    20    21   ar
    13    21    31    1
    14    31    32    1
    15    31    33    1
    16    31    34    1
    17    21    22   ar
    18    22    23   ar
    19    23    24    1
    20    23    25   ar
    21    25    26   ar
    22    26    27   ar
    23    27    28   ar
    24     3     4   ar
    25     4     5   ar
    26     5     6   ar
    27     6    35    1
    28    35    36    3
    29    13    14   am
    30    14    15    2
    31    14    16    1
    32    16    17    1
    33    16    18    1
    34    16    10    1
    35     6     1   ar
    36    28    19   ar
    37    28    22   ar
    38    24    29    1
    39    24    30    1
@<TRIPOS>MOLECULE
*****
 36 39 0 0 0
SMALL
GASTEIGER

@<TRIPOS>ATOM
      1 C          63.4749   88.9890   12.1870 C.ar    1  UNL1        0.0635
      2 C          63.4666   87.5359   12.5591 C.ar    1  UNL1        0.0171
      3 C          62.7693   86.5405   11.6799 C.ar    1  UNL1        0.0190
      4 C          62.0803   86.9983   10.4287 C.ar    1  UNL1        0.0023
      5 C          62.0885   88.4514   10.0566 C.ar    1  UNL1        0.0116
      6 C          62.7858   89.4467   10.9358 C.ar    1  UNL1        0.0821
      7 C          67.3925   93.7936   15.1565 C.3     1  UNL1        0.0948
      8 C          66.2643   92.9703   15.7038 C.2     1  UNL1        0.2264
      9 O          65.8336   93.1425   17.1303 O.2     1  UNL1       -0.2748
     10 N          65.5670   91.9751   14.8246 N.am    1  UNL1       -0.2730
     11 C          65.9978   91.8029   13.3982 C.3     1  UNL1        0.1156
     12 C          65.3004   90.8076   12.5189 C.3     1  UNL1        0.1197
     13 N          64.1722   89.9843   13.0662 N.am    1  UNL1       -0.2549
     14 C          63.7414   90.1564   14.4927 C.2     1  UNL1        0.2454
     15 O          62.6132   89.3332   15.0400 O.2     1  UNL1       -0.2728
     16 C          64.4388   91.1518   15.3719 C.3     1  UNL1        0.1294
     17 C          63.4313   90.6087   16.3415 C.3     1  UNL1        0.0293
     18 C          64.7863   91.9585   16.5878 C.3     1  UNL1        0.0293
     19 C          62.7610   85.0874   12.0520 C.ar    1  UNL1        0.0829
     20 C          62.7725   83.9322   11.0953 C.ar    1  UNL1        0.0246
     21 C          62.7584   82.6653   11.8982 C.ar    1  UNL1        0.0933
     22 C          62.7382   83.0375   13.3511 C.ar    1  UNL1        0.1178
     23 C          62.7185   82.2067   14.5999 C.ar    1  UNL1        0.1450
     24 N          62.7169   80.7097   14.5048 N.pl3   1  UNL1       -0.3414
     25 N          62.7004   82.8729   15.9436 N.ar    1  UNL1       -0.2065
     26 C          62.7021   84.3699   16.0387 C.ar    1  UNL1        0.2211
     27 N          62.7217   85.2006   14.7900 N.ar    1  UNL1       -0.1422
     28 N          62.7398   84.5345   13.4462 N.ar    1  UNL1       -0.2255
     29 H          62.7287   80.2725   13.6228 H       1  UNL1        0.1438
     30 H          62.7040   80.1644   15.3244 H       1  UNL1        0.1438
     31 C          62.7636   81.2709   11.3452 C.3     1  UNL1        0.4201
     32 F          62.7689   79.8766   10.7922 F       1  UNL1       -0.1658
     33 F          63.9497   81.6132   10.4932 F       1  UNL1       -0.1658
     34 F          61.5775   80.9286   12.1972 F       1  UNL1       -0.1658
     35 C          62.7941   90.8998   10.5637 C.1     1  UNL1        0.1017
     36 N          62.8023   92.3528   10.1915 N.1     1  UNL1       -0.1908
@<TRIPOS>BOND
     1     7     8    1
     2     8     9    2
     3     8    10   am
     4    10    11    1
     5    11    12    1
     6    12    13    1
     7    13     1    1
     8     1     2   ar
     9     2     3   ar
    10     3    19    1
    11    19    20   ar
    12    20    21   ar
    13    21    31    1
    14    31    32    1
    15    31    33    1
    16    31    34    1
    17    21    22   ar
    18    22    23   ar
    19    23    24    1
    20    23    25   ar
    21    25    26   ar
    22    26    27   ar
    23    27    28   ar
    24     3     4   ar
    25     4     5   ar
    26     5     6   ar
    27     6    35    1
    28    35    36    3
    29    13    14   am
    30    14    15    2
    31    14    16    1
    32    16    17    1
    33    16    18    1
    34    16    10    1
    35     6     1   ar
    36    28    19   ar
    37    28    22   ar
    38    24    29    1
    39    24    30    1
@<TRIPOS>MOLECULE
*****
 36 39 0 0 0
SMALL
GASTEIGER

@<TRIPOS>ATOM
      1 C          63.7579   87.3693   15.0369 C.ar    1  UNL1        0.0635
      2 C          64.4792   88.5546   14.4669 C.ar    1  UNL1        0.0171
      3 C          64.4603   89.8657   15.1956 C.ar    1  UNL1        0.0190
      4 C          63.7202   89.9913   16.4941 C.ar    1  UNL1        0.0023
      5 C          62.9989   88.8060   17.0641 C.ar    1  UNL1        0.0116
      6 C          63.0178   87.4950   16.3355 C.ar    1  UNL1        0.0821
      7 C          64.4071   80.9076   12.7843 C.3     1  UNL1        0.0948
      8 C          63.8337   82.1254   12.1222 C.2     1  UNL1        0.2264
      9 O          63.2793   82.0322   10.7316 O.2     1  UNL1       -0.2748
     10 N          63.8148   83.4363   12.8509 N.am    1  UNL1       -0.2730
     11 C          64.3692   83.5295   14.2416 C.3     1  UNL1        0.1156
     12 C          64.3502   84.8406   14.9703 C.3     1  UNL1        0.1197
     13 N          63.7768   86.0584   14.3082 N.am    1  UNL1       -0.2549
     14 C          63.2225   85.9652   12.9176 C.2     1  UNL1        0.2454
     15 O          62.6491   87.1829   12.2555 O.2     1  UNL1       -0.2728
     16 C          63.2414   84.6542   12.1889 C.3     1  UNL1        0.1294
     17 C          62.5969   85.5212   11.1483 C.3     1  UNL1        0.0293
     18 C          63.0365   83.6443   11.0989 C.3     1  UNL1        0.0293
     19 C          65.1815   91.0510   14.6256 C.ar    1  UNL1        0.0829
     20 C          66.1763   91.9094   15.3492 C.ar    1  UNL1        0.0246
     21 C          66.6442   92.9749   14.4027 C.ar    1  UNL1        0.0933
     22 C          65.9386   92.7750   13.0942 C.ar    1  UNL1        0.1178
     23 C          66.0024   93.5221   11.7951 C.ar    1  UNL1        0.1450
     24 N          66.9064   94.7111   11.6573 N.pl3   1  UNL1       -0.3414
     25 N          65.1622   93.0801   10.6337 N.ar    1  UNL1       -0.2065
     26 C          64.2583   91.8911   10.7715 C.ar    1  UNL1        0.2211
     27 N          64.1944   91.1440   12.0706 N.ar    1  UNL1       -0.1422
     28 N          65.0346   91.5860   13.2320 N.ar    1  UNL1       -0.2255
     29 H          67.4578   95.0012   12.4196 H       1  UNL1        0.1438
     30 H          66.9483   95.2015   10.8047 H       1  UNL1        0.1438
     31 C          67.6424   94.0513   14.7106 C.3     1  UNL1        0.4201
     32 F          68.6406   95.1278   15.0186 F       1  UNL1       -0.1658
     33 F          66.6408   95.0943   14.3119 F       1  UNL1       -0.1658
     34 F          68.6440   93.0084   15.1093 F       1  UNL1       -0.1658
     35 C          62.2965   86.3097   16.9055 C.1     1  UNL1        0.1017
     36 N          61.5752   85.1246   17.4755 N.1     1  UNL1       -0.1908
@<TRIPOS>BOND
     1     7     8    1
     2     8     9    2
     3     8    10   am
     4    10    11    1
     5    11    12    1
     6    12    13    1
     7    13     1    1
     8     1     2   ar
     9     2     3   ar
    10     3    19    1
    11    19    20   ar
    12    20    21   ar
    13    21    31    1
    14    31    32    1
    15    31    33    1
    16    31    34    1
    17    21    22   ar
    18    22    23   ar
    19    23    24    1
    20    23    25   ar
    21    25    26   ar
    22    26    27   ar
    23    27    28   ar
    24     3     4   ar
    25     4     5   ar
    26     5     6   ar
    27     6    35    1
    28    35    36    3
    29    13    14   am
    30    14    15    2
    31    14    16    1
    32    16    17    1
    33    16    18    1
    34    16    10    1
    35     6     1   ar
    36    28    19   ar
    37    28    22   ar
    38    24    29    1
    39    24    30    1
