@<TRIPOS>MOLECULE
*****
 44 47 0 0 0
SMALL
GASTEIGER

@<TRIPOS>ATOM
      1 C          61.3693   89.4048    8.9645 C.3     1  UNL1        0.1246
      2 C          60.0626   87.3112    8.1526 C.2     1  UNL1        0.2492
      3 O          58.9207   86.7076    7.3898 O.2     1  UNL1       -0.2699
      4 N          60.2274   88.8012    8.2017 N.am    1  UNL1       -0.2721
      5 C          63.2853   84.1158   12.6427 C.ar    1  UNL1        0.2924
      6 N          63.8170   83.8576   11.2641 N.ar    1  UNL1       -0.1946
      7 C          62.9939   84.6514   10.2935 C.ar    1  UNL1        0.1202
      8 C          63.0573   84.7890    8.8012 C.ar    1  UNL1        0.0225
      9 C          62.0803   85.6756    8.0876 C.ar    1  UNL1        0.0063
     10 C          61.0397   86.4246    8.8663 C.ar    1  UNL1        0.0567
     11 C          60.9762   86.2869   10.3586 C.ar    1  UNL1        0.0437
     12 C          61.9533   85.4003   11.0722 C.ar    1  UNL1        0.1662
     13 O          62.1334   85.0693   12.5241 O.2     1  UNL1       -0.4237
     14 N          63.8127   83.5245   13.9163 N.pl3   1  UNL1       -0.2619
     15 C          65.1789   83.9005   14.4084 C.3     1  UNL1        0.1166
     16 C          61.9254   81.7411   14.0019 C.3     1  UNL1        0.0233
     17 C          62.9741   82.5571   14.6978 C.3     1  UNL1        0.0952
     18 C          59.2503   89.6879    7.4880 C.3     1  UNL1        0.1111
     19 C          59.3176   89.8301    5.9963 C.3     1  UNL1        0.0939
     20 N          58.6019   90.9603    5.3177 N.3     1  UNL1       -0.2688
     21 C          57.1029   90.9724    5.2609 C.3     1  UNL1        0.0897
     22 C          59.3850   92.0783    4.6959 C.3     1  UNL1        0.0897
     23 C          61.1209   90.0668   10.2874 C.3     1  UNL1        0.1484
     24 O          59.7259   90.1553   10.8316 O.3     1  UNL1       -0.3810
     25 H          59.1091   89.7395   10.2091 H       1  UNL1        0.2105
     26 C          62.2675   90.6402   11.0661 C.3     1  UNL1        0.1075
     27 N          62.1602   90.7960   12.5542 N.am    1  UNL1       -0.2695
     28 C          62.7062   89.7332   13.4609 C.2     1  UNL1        0.4020
     29 O          63.3596   88.5146   12.8797 O.2     1  UNL1       -0.2264
     30 H          61.7313   91.5959   12.9357 H       1  UNL1        0.1528
     31 O          62.5988   89.8890   14.9490 O.3     1  UNL1       -0.4291
     32 C          63.5898   89.2105   15.8476 C.3     1  UNL1        0.2447
     33 C          63.2449   87.8996   16.4899 C.ar    1  UNL1        0.0714
     34 C          62.6378   87.7166   17.8494 C.ar    1  UNL1        0.1053
     35 N          62.4642   86.2454   18.0853 N.ar    1  UNL1       -0.2350
     36 C          62.9640   85.5192   16.8717 C.ar    1  UNL1        0.1343
     37 S          63.4465   86.5416   15.8857 S.2     1  UNL1       -0.0652
     38 C          63.5215   91.0579   10.3569 C.3     1  UNL1        0.0485
     39 C          64.4723   92.0137   11.0145 C.ar    1  UNL1       -0.0204
     40 C          64.9197   93.2465   10.2865 C.ar    1  UNL1       -0.0042
     41 C          65.8704   94.2023   10.9441 C.ar    1  UNL1       -0.0003
     42 C          66.3738   93.9254   12.3297 C.ar    1  UNL1       -0.0000
     43 C          65.9264   92.6926   13.0577 C.ar    1  UNL1       -0.0003
     44 C          64.9756   91.7368   12.4001 C.ar    1  UNL1       -0.0042
@<TRIPOS>BOND
     1    16    17    1
     2    17    14    1
     3    14    15    1
     4    14     5    1
     5     5     6   ar
     6     6     7   ar
     7     7     8   ar
     8     8     9   ar
     9     9    10   ar
    10    10     2    1
    11     2     3    2
    12     2     4   am
    13     4    18    1
    14    18    19    1
    15    19    20    1
    16    20    21    1
    17    20    22    1
    18     4     1    1
    19     1    23    1
    20    23    24    1
    21    23    26    1
    22    26    38    1
    23    38    39    1
    24    39    40   ar
    25    40    41   ar
    26    41    42   ar
    27    42    43   ar
    28    43    44   ar
    29    26    27    1
    30    27    28   am
    31    28    29    2
    32    28    31    1
    33    31    32    1
    34    32    33    1
    35    33    34   ar
    36    34    35   ar
    37    35    36   ar
    38    36    37   ar
    39    10    11   ar
    40    11    12   ar
    41    12    13   ar
    42    13     5   ar
    43    12     7   ar
    44    44    39   ar
    45    37    33   ar
    46    24    25    1
    47    27    30    1
@<TRIPOS>MOLECULE
*****
 44 47 0 0 0
SMALL
GASTEIGER

@<TRIPOS>ATOM
      1 C          64.1363   87.7436   14.2889 C.3     1  UNL1        0.1246
      2 C          63.7877   90.0704   15.3908 C.2     1  UNL1        0.2492
      3 O          63.4680   90.9012   16.5981 O.2     1  UNL1       -0.2699
      4 N          63.8166   88.5744   15.4962 N.am    1  UNL1       -0.2721
      5 C          66.4180   93.5881   10.7579 C.ar    1  UNL1        0.2924
      6 N          65.1939   92.8554   10.2946 N.ar    1  UNL1       -0.1946
      7 C          64.6599   92.0660   11.4530 C.ar    1  UNL1        0.1202
      8 C          63.4751   91.1559   11.5864 C.ar    1  UNL1        0.0225
      9 C          63.1844   90.4907   12.8990 C.ar    1  UNL1        0.0063
     10 C          64.0784   90.7357   14.0782 C.ar    1  UNL1        0.0567
     11 C          65.2633   91.6458   13.9448 C.ar    1  UNL1        0.0437
     12 C          65.5540   92.3110   12.6323 C.ar    1  UNL1        0.1662
     13 O          66.6405   93.2517   12.2027 O.2     1  UNL1       -0.4237
     14 N          67.2699   94.4977    9.9231 N.pl3   1  UNL1       -0.2619
     15 C          67.0654   95.9823    9.9843 C.3     1  UNL1        0.1166
     16 C          68.6650   92.4634    9.1073 C.3     1  UNL1        0.0233
     17 C          68.3264   93.9225    9.0270 C.3     1  UNL1        0.0952
     18 C          63.5258   87.9092   16.8088 C.3     1  UNL1        0.1111
     19 C          62.1576   87.3594   17.0842 C.3     1  UNL1        0.0939
     20 N          61.8310   85.9423   16.7168 N.3     1  UNL1       -0.2688
     21 C          60.5919   85.6385   15.9278 C.3     1  UNL1        0.0897
     22 C          62.7433   84.8288   17.1384 C.3     1  UNL1        0.0897
     23 C          64.5395   86.3080   14.4518 C.3     1  UNL1        0.1484
     24 O          65.6542   85.9436   15.3870 O.3     1  UNL1       -0.3810
     25 H          66.0030   86.7474   15.8031 H       1  UNL1        0.2105
     26 C          63.8281   85.2369   13.6794 C.3     1  UNL1        0.1075
     27 N          62.5516   85.5543   12.9584 N.am    1  UNL1       -0.2695
     28 C          62.4407   85.3030   11.4838 C.2     1  UNL1        0.4020
     29 O          63.6062   84.7342   10.7302 O.2     1  UNL1       -0.2264
     30 H          61.7866   85.9277   13.4530 H       1  UNL1        0.1528
     31 O          61.1641   85.6204   10.7628 O.3     1  UNL1       -0.4291
     32 C          61.1214   86.7481    9.7746 C.3     1  UNL1        0.2447
     33 C          60.6351   88.1013   10.2015 C.ar    1  UNL1        0.0714
     34 C          60.6594   89.3497    9.3701 C.ar    1  UNL1        0.1053
     35 N          60.0784   90.4637   10.1894 N.ar    1  UNL1       -0.2350
     36 C          59.6951   89.9040   11.5273 C.ar    1  UNL1        0.1343
     37 S          60.0392   88.4439   11.5347 S.2     1  UNL1       -0.0652
     38 C          64.3931   83.8483   13.6281 C.3     1  UNL1        0.0485
     39 C          63.4731   82.6671   13.5372 C.ar    1  UNL1       -0.0204
     40 C          62.3256   82.5348   14.4940 C.ar    1  UNL1       -0.0042
     41 C          61.4056   81.3536   14.4031 C.ar    1  UNL1       -0.0003
     42 C          61.6330   80.3047   13.3553 C.ar    1  UNL1       -0.0000
     43 C          62.7806   80.4369   12.3984 C.ar    1  UNL1       -0.0003
     44 C          63.7006   81.6182   12.4894 C.ar    1  UNL1       -0.0042
@<TRIPOS>BOND
     1    16    17    1
     2    17    14    1
     3    14    15    1
     4    14     5    1
     5     5     6   ar
     6     6     7   ar
     7     7     8   ar
     8     8     9   ar
     9     9    10   ar
    10    10     2    1
    11     2     3    2
    12     2     4   am
    13     4    18    1
    14    18    19    1
    15    19    20    1
    16    20    21    1
    17    20    22    1
    18     4     1    1
    19     1    23    1
    20    23    24    1
    21    23    26    1
    22    26    38    1
    23    38    39    1
    24    39    40   ar
    25    40    41   ar
    26    41    42   ar
    27    42    43   ar
    28    43    44   ar
    29    26    27    1
    30    27    28   am
    31    28    29    2
    32    28    31    1
    33    31    32    1
    34    32    33    1
    35    33    34   ar
    36    34    35   ar
    37    35    36   ar
    38    36    37   ar
    39    10    11   ar
    40    11    12   ar
    41    12    13   ar
    42    13     5   ar
    43    12     7   ar
    44    44    39   ar
    45    37    33   ar
    46    24    25    1
    47    27    30    1
@<TRIPOS>MOLECULE
*****
 44 47 0 0 0
SMALL
GASTEIGER

@<TRIPOS>ATOM
      1 C          62.4067   88.8143   11.4507 C.3     1  UNL1        0.1246
      2 C          63.9566   89.1181   13.5135 C.2     1  UNL1        0.2492
      3 O          64.7673   90.0069   14.4096 O.2     1  UNL1       -0.2699
      4 N          63.2173   89.7030   12.3468 N.am    1  UNL1       -0.2721
      5 C          63.0331   82.8262   12.9521 C.ar    1  UNL1        0.2924
      6 N          63.5637   83.2081   14.3021 N.ar    1  UNL1       -0.1946
      7 C          63.7428   84.6972   14.3256 C.ar    1  UNL1        0.1202
      8 C          64.2339   85.6324   15.3905 C.ar    1  UNL1        0.0225
      9 C          64.3052   87.1060   15.1198 C.ar    1  UNL1        0.0063
     10 C          63.8853   87.6444   13.7842 C.ar    1  UNL1        0.0567
     11 C          63.3942   86.7092   12.7193 C.ar    1  UNL1        0.0437
     12 C          63.3229   85.2356   12.9900 C.ar    1  UNL1        0.1662
     13 O          62.8843   84.0792   12.1411 O.2     1  UNL1       -0.4237
     14 N          62.7084   81.4354   12.4936 N.pl3   1  UNL1       -0.2619
     15 C          63.0271   81.0150   11.0894 C.3     1  UNL1        0.1166
     16 C          60.7856   80.8294   14.1323 C.3     1  UNL1        0.0233
     17 C          62.0649   80.4649   13.4391 C.3     1  UNL1        0.0952
     18 C          63.2886   91.1767   12.0761 C.3     1  UNL1        0.1111
     19 C          64.2546   91.7064   11.0582 C.3     1  UNL1        0.0939
     20 N          65.2792   92.7270   11.4564 N.3     1  UNL1       -0.2688
     21 C          65.7632   92.7899   12.8748 C.3     1  UNL1        0.0897
     22 C          65.8199   93.6846   10.4363 C.3     1  UNL1        0.0897
     23 C          61.0872   89.2890   10.9181 C.3     1  UNL1        0.1484
     24 O          60.2819   90.2896   11.6928 O.3     1  UNL1       -0.3810
     25 H          60.7538   90.5234   12.5074 H       1  UNL1        0.2105
     26 C          60.5730   88.7630    9.6108 C.3     1  UNL1        0.1075
     27 N          60.4550   89.6785    8.4284 N.am    1  UNL1       -0.2695
     28 C          59.4128   89.4202    7.3810 C.2     1  UNL1        0.4020
     29 O          58.4885   88.2465    7.5160 O.2     1  UNL1       -0.2264
     30 H          61.0616   90.4488    8.3397 H       1  UNL1        0.1528
     31 O          59.2948   90.3356    6.1985 O.3     1  UNL1       -0.4291
     32 C          60.4863   90.5868    5.3227 C.3     1  UNL1        0.2447
     33 C          60.4296   91.6498    4.2660 C.ar    1  UNL1        0.0714
     34 C          59.2637   92.5502    3.9828 C.ar    1  UNL1        0.1053
     35 N          59.6422   93.4560    2.8487 N.ar    1  UNL1       -0.2350
     36 C          61.0421   93.1155    2.4308 C.ar    1  UNL1        0.1343
     37 S          61.5287   91.9992    3.3068 S.2     1  UNL1       -0.0652
     38 C          60.1768   87.3217    9.4860 C.3     1  UNL1        0.0485
     39 C          61.0272   86.3763    8.6904 C.ar    1  UNL1       -0.0204
     40 C          60.4910   85.7644    7.4303 C.ar    1  UNL1       -0.0042
     41 C          61.3414   84.8190    6.6347 C.ar    1  UNL1       -0.0003
     42 C          62.7281   84.4855    7.0992 C.ar    1  UNL1       -0.0000
     43 C          63.2643   85.0974    8.3593 C.ar    1  UNL1       -0.0003
     44 C          62.4139   86.0428    9.1549 C.ar    1  UNL1       -0.0042
@<TRIPOS>BOND
     1    16    17    1
     2    17    14    1
     3    14    15    1
     4    14     5    1
     5     5     6   ar
     6     6     7   ar
     7     7     8   ar
     8     8     9   ar
     9     9    10   ar
    10    10     2    1
    11     2     3    2
    12     2     4   am
    13     4    18    1
    14    18    19    1
    15    19    20    1
    16    20    21    1
    17    20    22    1
    18     4     1    1
    19     1    23    1
    20    23    24    1
    21    23    26    1
    22    26    38    1
    23    38    39    1
    24    39    40   ar
    25    40    41   ar
    26    41    42   ar
    27    42    43   ar
    28    43    44   ar
    29    26    27    1
    30    27    28   am
    31    28    29    2
    32    28    31    1
    33    31    32    1
    34    32    33    1
    35    33    34   ar
    36    34    35   ar
    37    35    36   ar
    38    36    37   ar
    39    10    11   ar
    40    11    12   ar
    41    12    13   ar
    42    13     5   ar
    43    12     7   ar
    44    44    39   ar
    45    37    33   ar
    46    24    25    1
    47    27    30    1
@<TRIPOS>MOLECULE
*****
 44 47 0 0 0
SMALL
GASTEIGER

@<TRIPOS>ATOM
      1 C          64.2581   88.3482   14.2039 C.3     1  UNL1        0.1246
      2 C          64.0292   90.6449   15.3968 C.2     1  UNL1        0.2492
      3 O          63.4182   91.4959   16.4702 O.2     1  UNL1       -0.2699
      4 N          63.6471   89.1993   15.2773 N.am    1  UNL1       -0.2721
      5 C          66.7330   93.6529   10.4573 C.ar    1  UNL1        0.2924
      6 N          67.7465   93.1105   11.4209 N.ar    1  UNL1       -0.1946
      7 C          67.0087   92.4285   12.5347 C.ar    1  UNL1        0.1202
      8 C          67.4851   91.7130   13.7639 C.ar    1  UNL1        0.0225
      9 C          66.4919   91.1184   14.7179 C.ar    1  UNL1        0.0063
     10 C          65.0224   91.2394   14.4427 C.ar    1  UNL1        0.0567
     11 C          64.5460   91.9550   13.2135 C.ar    1  UNL1        0.0437
     12 C          65.5391   92.5495   12.2595 C.ar    1  UNL1        0.1662
     13 O          65.3688   93.3062   10.9756 O.2     1  UNL1       -0.4237
     14 N          67.0314   94.4093    9.1968 N.pl3   1  UNL1       -0.2619
     15 C          67.9837   93.8394    8.1878 C.3     1  UNL1        0.1166
     16 C          67.0779   96.7724    8.1181 C.3     1  UNL1        0.0233
     17 C          66.3774   95.7356    8.9454 C.3     1  UNL1        0.0952
     18 C          62.6539   88.6047   16.2314 C.3     1  UNL1        0.1111
     19 C          63.0489   87.4481   17.1010 C.3     1  UNL1        0.0939
     20 N          62.9889   86.0497   16.5618 N.3     1  UNL1       -0.2688
     21 C          61.6609   85.4041   16.2975 C.3     1  UNL1        0.0897
     22 C          64.2568   85.2968   16.2868 C.3     1  UNL1        0.0897
     23 C          63.4882   88.0545   12.9505 C.3     1  UNL1        0.1484
     24 O          63.1604   89.1629   11.9945 O.3     1  UNL1       -0.3810
     25 H          63.5164   89.9988   12.3343 H       1  UNL1        0.2105
     26 C          63.0460   86.6523   12.6531 C.3     1  UNL1        0.1075
     27 N          61.7785   86.4120   11.8877 N.am    1  UNL1       -0.2695
     28 C          61.8098   86.3357   10.3900 C.2     1  UNL1        0.4020
     29 O          63.1085   86.4997    9.6576 O.2     1  UNL1       -0.2264
     30 H          60.9261   86.3044   12.3684 H       1  UNL1        0.1528
     31 O          60.5423   86.0954    9.6246 O.3     1  UNL1       -0.4291
     32 C          59.6523   87.2485    9.2665 C.3     1  UNL1        0.2447
     33 C          59.7523   88.5374   10.0271 C.ar    1  UNL1        0.0714
     34 C          60.3623   89.8125    9.5250 C.ar    1  UNL1        0.1053
     35 N          60.2469   90.8408   10.6109 N.ar    1  UNL1       -0.2350
     36 C          59.5655   90.2013   11.7843 C.ar    1  UNL1        0.1343
     37 S          59.2598   88.7777   11.4235 S.2     1  UNL1       -0.0652
     38 C          63.8713   85.4905   13.1211 C.3     1  UNL1        0.0485
     39 C          63.5644   84.1066   12.6305 C.ar    1  UNL1       -0.0204
     40 C          64.1689   83.6139   11.3492 C.ar    1  UNL1       -0.0042
     41 C          63.8621   82.2300   10.8586 C.ar    1  UNL1       -0.0003
     42 C          62.9508   81.3389   11.6493 C.ar    1  UNL1       -0.0000
     43 C          62.3463   81.8316   12.9306 C.ar    1  UNL1       -0.0003
     44 C          62.6531   83.2155   13.4212 C.ar    1  UNL1       -0.0042
@<TRIPOS>BOND
     1    16    17    1
     2    17    14    1
     3    14    15    1
     4    14     5    1
     5     5     6   ar
     6     6     7   ar
     7     7     8   ar
     8     8     9   ar
     9     9    10   ar
    10    10     2    1
    11     2     3    2
    12     2     4   am
    13     4    18    1
    14    18    19    1
    15    19    20    1
    16    20    21    1
    17    20    22    1
    18     4     1    1
    19     1    23    1
    20    23    24    1
    21    23    26    1
    22    26    38    1
    23    38    39    1
    24    39    40   ar
    25    40    41   ar
    26    41    42   ar
    27    42    43   ar
    28    43    44   ar
    29    26    27    1
    30    27    28   am
    31    28    29    2
    32    28    31    1
    33    31    32    1
    34    32    33    1
    35    33    34   ar
    36    34    35   ar
    37    35    36   ar
    38    36    37   ar
    39    10    11   ar
    40    11    12   ar
    41    12    13   ar
    42    13     5   ar
    43    12     7   ar
    44    44    39   ar
    45    37    33   ar
    46    24    25    1
    47    27    30    1
@<TRIPOS>MOLECULE
*****
 44 47 0 0 0
SMALL
GASTEIGER

@<TRIPOS>ATOM
      1 C          63.8837   88.8522   13.2765 C.3     1  UNL1        0.1246
      2 C          64.1918   90.8665   14.8881 C.2     1  UNL1        0.2492
      3 O          63.8731   91.5558   16.1817 O.2     1  UNL1       -0.2699
      4 N          63.5651   89.5414   14.5701 N.am    1  UNL1       -0.2721
      5 C          66.6547   94.1820   10.0200 C.ar    1  UNL1        0.2924
      6 N          67.7115   93.5207   10.8542 N.ar    1  UNL1       -0.1946
      7 C          67.0283   92.7743   11.9615 C.ar    1  UNL1        0.1202
      8 C          67.5618   91.9383   13.0869 C.ar    1  UNL1        0.0225
      9 C          66.6163   91.3024   14.0624 C.ar    1  UNL1        0.0063
     10 C          65.1373   91.5025   13.9125 C.ar    1  UNL1        0.0567
     11 C          64.6038   92.3384   12.7872 C.ar    1  UNL1        0.0437
     12 C          65.5492   92.9743   11.8117 C.ar    1  UNL1        0.1662
     13 O          65.3184   93.8443   10.6117 O.2     1  UNL1       -0.4237
     14 N          66.8926   95.0318    8.8070 N.pl3   1  UNL1       -0.2619
     15 C          67.8200   94.5563    7.7283 C.3     1  UNL1        0.1166
     16 C          65.3159   96.8559    9.7747 C.3     1  UNL1        0.0233
     17 C          66.2030   96.3570    8.6728 C.3     1  UNL1        0.0952
     18 C          62.6196   88.9055   15.5457 C.3     1  UNL1        0.1111
     19 C          63.1482   88.0149   16.6307 C.3     1  UNL1        0.0939
     20 N          63.2372   86.5341   16.4087 N.3     1  UNL1       -0.2688
     21 C          62.3446   85.6055   17.1777 C.3     1  UNL1        0.0897
     22 C          64.2185   85.9819   15.4178 C.3     1  UNL1        0.0897
     23 C          62.9677   89.0069   12.0987 C.3     1  UNL1        0.1484
     24 O          63.0960   90.2015   11.2007 O.3     1  UNL1       -0.3810
     25 H          63.8136   90.7706   11.5201 H       1  UNL1        0.2105
     26 C          61.9235   87.9670   11.8190 C.3     1  UNL1        0.1075
     27 N          62.2653   86.5110   11.9341 N.am    1  UNL1       -0.2695
     28 C          62.6308   85.7273   10.7085 C.2     1  UNL1        0.4020
     29 O          62.6545   86.3996    9.3678 O.2     1  UNL1       -0.2264
     30 H          62.2498   86.0698   12.8140 H       1  UNL1        0.1528
     31 O          62.9726   84.2712   10.8235 O.3     1  UNL1       -0.4291
     32 C          63.6493   83.7550   12.0587 C.3     1  UNL1        0.2447
     33 C          63.0355   82.6275   12.8344 C.ar    1  UNL1        0.0714
     34 C          62.4314   82.7255   14.2039 C.ar    1  UNL1        0.1053
     35 N          61.9406   81.3625   14.5928 N.ar    1  UNL1       -0.2350
     36 C          62.2414   80.4219   13.4637 C.ar    1  UNL1        0.1343
     37 S          62.9181   81.2037   12.3769 S.2     1  UNL1       -0.0652
     38 C          60.5375   88.3831   11.4243 C.3     1  UNL1        0.0485
     39 C          60.1094   88.2993    9.9892 C.ar    1  UNL1       -0.0204
     40 C          59.4991   87.0349    9.4612 C.ar    1  UNL1       -0.0042
     41 C          59.0710   86.9511    8.0260 C.ar    1  UNL1       -0.0003
     42 C          59.2531   88.1317    7.1189 C.ar    1  UNL1       -0.0000
     43 C          59.8633   89.3961    7.6469 C.ar    1  UNL1       -0.0003
     44 C          60.2915   89.4799    9.0820 C.ar    1  UNL1       -0.0042
@<TRIPOS>BOND
     1    16    17    1
     2    17    14    1
     3    14    15    1
     4    14     5    1
     5     5     6   ar
     6     6     7   ar
     7     7     8   ar
     8     8     9   ar
     9     9    10   ar
    10    10     2    1
    11     2     3    2
    12     2     4   am
    13     4    18    1
    14    18    19    1
    15    19    20    1
    16    20    21    1
    17    20    22    1
    18     4     1    1
    19     1    23    1
    20    23    24    1
    21    23    26    1
    22    26    38    1
    23    38    39    1
    24    39    40   ar
    25    40    41   ar
    26    41    42   ar
    27    42    43   ar
    28    43    44   ar
    29    26    27    1
    30    27    28   am
    31    28    29    2
    32    28    31    1
    33    31    32    1
    34    32    33    1
    35    33    34   ar
    36    34    35   ar
    37    35    36   ar
    38    36    37   ar
    39    10    11   ar
    40    11    12   ar
    41    12    13   ar
    42    13     5   ar
    43    12     7   ar
    44    44    39   ar
    45    37    33   ar
    46    24    25    1
    47    27    30    1
@<TRIPOS>MOLECULE
*****
 44 47 0 0 0
SMALL
GASTEIGER

@<TRIPOS>ATOM
      1 C          61.5089   89.5707    8.9961 C.3     1  UNL1        0.1246
      2 C          60.0343   87.5135    8.4101 C.2     1  UNL1        0.2492
      3 O          58.8171   86.9324    7.7537 O.2     1  UNL1       -0.2699
      4 N          60.2918   88.9896    8.3397 N.am    1  UNL1       -0.2721
      5 C          63.1885   84.3160   12.9470 C.ar    1  UNL1        0.2924
      6 N          63.7195   84.0323   11.5732 N.ar    1  UNL1       -0.1946
      7 C          62.9129   84.8288   10.5908 C.ar    1  UNL1        0.1202
      8 C          62.9829   84.9477    9.0972 C.ar    1  UNL1        0.0225
      9 C          62.0234   85.8426    8.3703 C.ar    1  UNL1        0.0063
     10 C          60.9938   86.6186    9.1371 C.ar    1  UNL1        0.0567
     11 C          60.9238   86.4997   10.6307 C.ar    1  UNL1        0.0437
     12 C          61.8834   85.6048   11.3576 C.ar    1  UNL1        0.1662
     13 O          62.0537   85.2878   12.8138 O.2     1  UNL1       -0.4237
     14 N          63.7021   83.7306   14.2291 N.pl3   1  UNL1       -0.2619
     15 C          63.4519   82.2863   14.5473 C.3     1  UNL1        0.1166
     16 C          63.7850   85.7388   15.8753 C.3     1  UNL1        0.0233
     17 C          64.4658   84.5896   15.1928 C.3     1  UNL1        0.0952
     18 C          59.3322   89.8845    7.6127 C.3     1  UNL1        0.1111
     19 C          59.2914   89.8798    6.1133 C.3     1  UNL1        0.0939
     20 N          58.5557   90.9617    5.3798 N.3     1  UNL1       -0.2688
     21 C          59.3187   92.0633    4.7056 C.3     1  UNL1        0.0897
     22 C          57.0570   90.9422    5.3203 C.3     1  UNL1        0.0897
     23 C          61.4003   90.2016   10.3527 C.3     1  UNL1        0.1484
     24 O          60.0837   90.2134   11.0711 O.3     1  UNL1       -0.3810
     25 H          59.4128   89.7760   10.5239 H       1  UNL1        0.2105
     26 C          62.6085   90.8206   10.9908 C.3     1  UNL1        0.1075
     27 N          62.7463   90.8293   12.4845 N.am    1  UNL1       -0.2695
     28 C          63.1578   89.5809   13.2070 C.2     1  UNL1        0.4020
     29 O          63.4316   88.3237   12.4359 O.2     1  UNL1       -0.2264
     30 H          62.5666   91.6544   12.9906 H       1  UNL1        0.1528
     31 O          63.2956   89.5896   14.7007 O.3     1  UNL1       -0.4291
     32 C          63.5814   90.8744   15.4200 C.3     1  UNL1        0.2447
     33 C          64.9917   91.3723   15.5341 C.ar    1  UNL1        0.0714
     34 C          65.4511   92.5384   16.3585 C.ar    1  UNL1        0.1053
     35 N          66.9336   92.6784   16.1778 N.ar    1  UNL1       -0.2350
     36 C          67.3905   91.5989   15.2418 C.ar    1  UNL1        0.1343
     37 S          66.1903   90.7917   14.8440 S.2     1  UNL1       -0.0652
     38 C          63.6788   91.4309   10.1353 C.3     1  UNL1        0.0485
     39 C          64.5764   92.4918   10.7001 C.ar    1  UNL1       -0.0204
     40 C          64.9195   93.6991    9.8788 C.ar    1  UNL1       -0.0042
     41 C          65.8170   94.7600   10.4435 C.ar    1  UNL1       -0.0003
     42 C          66.3714   94.6136   11.8295 C.ar    1  UNL1       -0.0000
     43 C          66.0283   93.4062   12.6508 C.ar    1  UNL1       -0.0003
     44 C          65.1308   92.3453   12.0861 C.ar    1  UNL1       -0.0042
@<TRIPOS>BOND
     1    16    17    1
     2    17    14    1
     3    14    15    1
     4    14     5    1
     5     5     6   ar
     6     6     7   ar
     7     7     8   ar
     8     8     9   ar
     9     9    10   ar
    10    10     2    1
    11     2     3    2
    12     2     4   am
    13     4    18    1
    14    18    19    1
    15    19    20    1
    16    20    21    1
    17    20    22    1
    18     4     1    1
    19     1    23    1
    20    23    24    1
    21    23    26    1
    22    26    38    1
    23    38    39    1
    24    39    40   ar
    25    40    41   ar
    26    41    42   ar
    27    42    43   ar
    28    43    44   ar
    29    26    27    1
    30    27    28   am
    31    28    29    2
    32    28    31    1
    33    31    32    1
    34    32    33    1
    35    33    34   ar
    36    34    35   ar
    37    35    36   ar
    38    36    37   ar
    39    10    11   ar
    40    11    12   ar
    41    12    13   ar
    42    13     5   ar
    43    12     7   ar
    44    44    39   ar
    45    37    33   ar
    46    24    25    1
    47    27    30    1
@<TRIPOS>MOLECULE
*****
 44 47 0 0 0
SMALL
GASTEIGER

@<TRIPOS>ATOM
      1 C          63.6605   89.0930   13.2070 C.3     1  UNL1        0.1246
      2 C          64.3011   90.9338   14.9248 C.2     1  UNL1        0.2492
      3 O          64.1563   91.5474   16.2859 O.2     1  UNL1       -0.2699
      4 N          63.5158   89.7066   14.5680 N.am    1  UNL1       -0.2721
      5 C          66.6892   94.1624    9.9620 C.ar    1  UNL1        0.2924
      6 N          67.7573   93.4999   10.7806 N.ar    1  UNL1       -0.1946
      7 C          67.0912   92.7746   11.9121 C.ar    1  UNL1        0.1202
      8 C          67.6410   91.9467   13.0356 C.ar    1  UNL1        0.0225
      9 C          66.7109   91.3331   14.0398 C.ar    1  UNL1        0.0063
     10 C          65.2311   91.5474   13.9205 C.ar    1  UNL1        0.0567
     11 C          64.6813   92.3753   12.7970 C.ar    1  UNL1        0.0437
     12 C          65.6114   92.9889   11.7928 C.ar    1  UNL1        0.1662
     13 O          65.3629   93.8466   10.5875 O.2     1  UNL1       -0.4237
     14 N          66.9087   94.9946    8.7335 N.pl3   1  UNL1       -0.2619
     15 C          67.7377   94.4598    7.6036 C.3     1  UNL1        0.1166
     16 C          65.3741   96.8497    9.7100 C.3     1  UNL1        0.0233
     17 C          66.2993   96.3617    8.6349 C.3     1  UNL1        0.0952
     18 C          62.5857   89.0930   15.5724 C.3     1  UNL1        0.1111
     19 C          63.1363   88.2744   16.7023 C.3     1  UNL1        0.0939
     20 N          63.2058   86.7809   16.5819 N.3     1  UNL1       -0.2688
     21 C          64.0554   86.1530   15.5170 C.3     1  UNL1        0.0897
     22 C          62.4258   85.9153   17.5265 C.3     1  UNL1        0.0897
     23 C          62.5950   89.3033   12.1723 C.3     1  UNL1        0.1484
     24 O          61.9317   90.6421   12.0401 O.3     1  UNL1       -0.3810
     25 H          62.3054   91.2540   12.6934 H       1  UNL1        0.2105
     26 C          62.1927   88.1746   11.2699 C.3     1  UNL1        0.1075
     27 N          62.0692   88.4031    9.7925 N.am    1  UNL1       -0.2695
     28 C          60.8180   89.0092    9.2294 C.2     1  UNL1        0.4020
     29 O          59.6904   89.3870   10.1435 O.2     1  UNL1       -0.2264
     30 H          62.8093   88.1552    9.1925 H       1  UNL1        0.1528
     31 O          60.6945   89.2377    7.7520 O.3     1  UNL1       -0.4291
     32 C          59.3390   89.2890    7.1117 C.3     1  UNL1        0.2447
     33 C          59.0458   90.3153    6.0578 C.ar    1  UNL1        0.0714
     34 C          57.6844   90.7917    5.6456 C.ar    1  UNL1        0.1053
     35 N          57.8596   91.8162    4.5641 N.ar    1  UNL1       -0.2350
     36 C          59.3293   91.9730    4.3078 C.ar    1  UNL1        0.1343
     37 S          60.0623   91.0453    5.2310 S.2     1  UNL1       -0.0652
     38 C          61.9139   86.8175   11.8449 C.3     1  UNL1        0.0485
     39 C          62.6064   85.6098   11.2866 C.ar    1  UNL1       -0.0204
     40 C          63.2193   84.6016   12.2128 C.ar    1  UNL1       -0.0042
     41 C          63.9118   83.3938   11.6545 C.ar    1  UNL1       -0.0003
     42 C          63.9915   83.1942   10.1700 C.ar    1  UNL1       -0.0000
     43 C          63.3786   84.2024    9.2438 C.ar    1  UNL1       -0.0003
     44 C          62.6861   85.4102    9.8021 C.ar    1  UNL1       -0.0042
@<TRIPOS>BOND
     1    16    17    1
     2    17    14    1
     3    14    15    1
     4    14     5    1
     5     5     6   ar
     6     6     7   ar
     7     7     8   ar
     8     8     9   ar
     9     9    10   ar
    10    10     2    1
    11     2     3    2
    12     2     4   am
    13     4    18    1
    14    18    19    1
    15    19    20    1
    16    20    21    1
    17    20    22    1
    18     4     1    1
    19     1    23    1
    20    23    24    1
    21    23    26    1
    22    26    38    1
    23    38    39    1
    24    39    40   ar
    25    40    41   ar
    26    41    42   ar
    27    42    43   ar
    28    43    44   ar
    29    26    27    1
    30    27    28   am
    31    28    29    2
    32    28    31    1
    33    31    32    1
    34    32    33    1
    35    33    34   ar
    36    34    35   ar
    37    35    36   ar
    38    36    37   ar
    39    10    11   ar
    40    11    12   ar
    41    12    13   ar
    42    13     5   ar
    43    12     7   ar
    44    44    39   ar
    45    37    33   ar
    46    24    25    1
    47    27    30    1
@<TRIPOS>MOLECULE
*****
 44 47 0 0 0
SMALL
GASTEIGER

@<TRIPOS>ATOM
      1 C          63.7139   89.1770   13.7739 C.3     1  UNL1        0.1246
      2 C          63.9337   90.9227   15.6854 C.2     1  UNL1        0.2492
      3 O          63.6156   91.3661   17.0826 O.2     1  UNL1       -0.2699
      4 N          63.3958   89.6204   15.1710 N.am    1  UNL1       -0.2721
      5 C          66.5093   93.8618   10.6371 C.ar    1  UNL1        0.2924
      6 N          67.1805   94.2414   11.9238 N.ar    1  UNL1       -0.1946
      7 C          66.5021   93.4994   13.0370 C.ar    1  UNL1        0.1202
      8 C          66.7364   93.4788   14.5184 C.ar    1  UNL1        0.0225
      9 C          65.8803   92.6199   15.4012 C.ar    1  UNL1        0.0063
     10 C          64.7899   91.7816   14.8025 C.ar    1  UNL1        0.0567
     11 C          64.5556   91.8023   13.3211 C.ar    1  UNL1        0.0437
     12 C          65.4117   92.6612   12.4384 C.ar    1  UNL1        0.1662
     13 O          65.4162   92.8852   10.9552 O.2     1  UNL1       -0.4237
     14 N          66.8684   94.3696    9.2721 N.pl3   1  UNL1       -0.2619
     15 C          66.2428   95.6300    8.7523 C.3     1  UNL1        0.1166
     16 C          68.5878   92.4412    8.9989 C.3     1  UNL1        0.0233
     17 C          67.8529   93.6171    8.4270 C.3     1  UNL1        0.0952
     18 C          62.5397   88.7615   16.0539 C.3     1  UNL1        0.1111
     19 C          63.1492   87.6134   16.8024 C.3     1  UNL1        0.0939
     20 N          63.3275   86.2868   16.1253 N.3     1  UNL1       -0.2688
     21 C          64.5008   86.0590   15.2189 C.3     1  UNL1        0.0897
     22 C          62.3324   85.1880   16.3547 C.3     1  UNL1        0.0897
     23 C          62.6314   89.1317   12.7365 C.3     1  UNL1        0.1484
     24 O          61.3614   89.9026   12.9437 O.3     1  UNL1       -0.3810
     25 H          61.4028   90.3719   13.7916 H       1  UNL1        0.2105
     26 C          62.8188   88.3156   11.4920 C.3     1  UNL1        0.1075
     27 N          63.4993   86.9808   11.5658 N.am    1  UNL1       -0.2695
     28 C          62.7414   85.7780   12.0440 C.2     1  UNL1        0.4020
     29 O          61.3029   85.9099   12.4485 O.2     1  UNL1       -0.2264
     30 H          64.4434   86.8943   11.3003 H       1  UNL1        0.1528
     31 O          63.4219   84.4433   12.1179 O.3     1  UNL1       -0.4291
     32 C          62.7649   83.2326   11.5240 C.3     1  UNL1        0.2447
     33 C          62.5227   82.0190   12.3716 C.ar    1  UNL1        0.0714
     34 C          62.7500   80.5951   11.9581 C.ar    1  UNL1        0.1053
     35 N          62.3785   79.7123   13.1125 N.ar    1  UNL1       -0.2350
     36 C          61.9215   80.5905   14.2395 C.ar    1  UNL1        0.1343
     37 S          62.0107   82.0162   13.7815 S.2     1  UNL1       -0.0652
     38 C          62.3258   88.8342   10.1737 C.3     1  UNL1        0.0485
     39 C          61.4289   87.9856    9.3219 C.ar    1  UNL1       -0.0204
     40 C          60.0739   88.4912    8.9243 C.ar    1  UNL1       -0.0042
     41 C          59.1770   87.6426    8.0725 C.ar    1  UNL1       -0.0003
     42 C          59.6353   86.2884    7.6183 C.ar    1  UNL1       -0.0000
     43 C          60.9903   85.7829    8.0159 C.ar    1  UNL1       -0.0003
     44 C          61.8872   86.6315    8.8677 C.ar    1  UNL1       -0.0042
@<TRIPOS>BOND
     1    16    17    1
     2    17    14    1
     3    14    15    1
     4    14     5    1
     5     5     6   ar
     6     6     7   ar
     7     7     8   ar
     8     8     9   ar
     9     9    10   ar
    10    10     2    1
    11     2     3    2
    12     2     4   am
    13     4    18    1
    14    18    19    1
    15    19    20    1
    16    20    21    1
    17    20    22    1
    18     4     1    1
    19     1    23    1
    20    23    24    1
    21    23    26    1
    22    26    38    1
    23    38    39    1
    24    39    40   ar
    25    40    41   ar
    26    41    42   ar
    27    42    43   ar
    28    43    44   ar
    29    26    27    1
    30    27    28   am
    31    28    29    2
    32    28    31    1
    33    31    32    1
    34    32    33    1
    35    33    34   ar
    36    34    35   ar
    37    35    36   ar
    38    36    37   ar
    39    10    11   ar
    40    11    12   ar
    41    12    13   ar
    42    13     5   ar
    43    12     7   ar
    44    44    39   ar
    45    37    33   ar
    46    24    25    1
    47    27    30    1
@<TRIPOS>MOLECULE
*****
 44 47 0 0 0
SMALL
GASTEIGER

@<TRIPOS>ATOM
      1 C          63.5559   89.5596   12.1357 C.3     1  UNL1        0.1246
      2 C          64.2485   90.1766   14.5625 C.2     1  UNL1        0.2492
      3 O          64.7557   91.1828   15.5526 O.2     1  UNL1       -0.2699
      4 N          64.0630   90.5658   13.1258 N.am    1  UNL1       -0.2721
      5 C          63.4546   83.8458   14.7794 C.ar    1  UNL1        0.2924
      6 N          63.0584   84.5161   16.0615 N.ar    1  UNL1       -0.1946
      7 C          63.2833   85.9906   15.9024 C.ar    1  UNL1        0.1202
      8 C          63.0699   87.1449   16.8362 C.ar    1  UNL1        0.0225
      9 C          63.3916   88.5402   16.3895 C.ar    1  UNL1        0.0063
     10 C          63.9268   88.7812   15.0091 C.ar    1  UNL1        0.0567
     11 C          64.1402   87.6269   14.0754 C.ar    1  UNL1        0.0437
     12 C          63.8184   86.2316   14.5220 C.ar    1  UNL1        0.1662
     13 O          63.9243   84.9060   13.8280 O.2     1  UNL1       -0.4237
     14 N          63.3921   82.3737   14.4982 N.pl3   1  UNL1       -0.2619
     15 C          64.6439   81.6217   14.1557 C.3     1  UNL1        0.1166
     16 C          61.7041   80.6813   13.4800 C.3     1  UNL1        0.0233
     17 C          62.0777   81.6536   14.5595 C.3     1  UNL1        0.0952
     18 C          64.3848   91.9612   12.6792 C.3     1  UNL1        0.1111
     19 C          65.8012   92.4533   12.7181 C.3     1  UNL1        0.0939
     20 N          66.3434   93.2684   11.5817 N.3     1  UNL1       -0.2688
     21 C          66.2183   94.7630   11.6040 C.3     1  UNL1        0.0897
     22 C          67.0108   92.5888   10.4229 C.3     1  UNL1        0.0897
     23 C          62.0797   89.3637   11.9546 C.3     1  UNL1        0.1484
     24 O          61.1132   90.0632   12.8638 O.3     1  UNL1       -0.3810
     25 H          61.6039   90.5981   13.5073 H       1  UNL1        0.2105
     26 C          61.5701   88.4684   10.8644 C.3     1  UNL1        0.1075
     27 N          61.4480   88.9883    9.4626 N.am    1  UNL1       -0.2695
     28 C          60.3099   88.5418    8.5936 C.2     1  UNL1        0.4020
     29 O          59.2938   87.5755    9.1262 O.2     1  UNL1       -0.2264
     30 H          62.1149   89.6226    9.1130 H       1  UNL1        0.1528
     31 O          60.1878   89.0617    7.1918 O.3     1  UNL1       -0.4291
     32 C          58.8617   89.5448    6.6839 C.3     1  UNL1        0.2447
     33 C          58.8045   90.6339    5.6541 C.ar    1  UNL1        0.0714
     34 C          57.5602   91.2879    5.1305 C.ar    1  UNL1        0.1053
     35 N          57.9683   92.3185    4.1199 N.ar    1  UNL1       -0.2350
     36 C          59.4649   92.3015    4.0188 C.ar    1  UNL1        0.1343
     37 S          59.9817   91.2604    4.9671 S.2     1  UNL1       -0.0652
     38 C          61.1826   87.0532   11.1758 C.3     1  UNL1        0.0485
     39 C          62.0101   85.9166   10.6531 C.ar    1  UNL1       -0.0204
     40 C          62.5210   85.9473    9.2431 C.ar    1  UNL1       -0.0042
     41 C          63.3485   84.8107    8.7203 C.ar    1  UNL1       -0.0003
     42 C          63.6652   83.6434    9.6075 C.ar    1  UNL1       -0.0000
     43 C          63.1544   83.6128   11.0175 C.ar    1  UNL1       -0.0003
     44 C          62.3268   84.7494   11.5403 C.ar    1  UNL1       -0.0042
@<TRIPOS>BOND
     1    16    17    1
     2    17    14    1
     3    14    15    1
     4    14     5    1
     5     5     6   ar
     6     6     7   ar
     7     7     8   ar
     8     8     9   ar
     9     9    10   ar
    10    10     2    1
    11     2     3    2
    12     2     4   am
    13     4    18    1
    14    18    19    1
    15    19    20    1
    16    20    21    1
    17    20    22    1
    18     4     1    1
    19     1    23    1
    20    23    24    1
    21    23    26    1
    22    26    38    1
    23    38    39    1
    24    39    40   ar
    25    40    41   ar
    26    41    42   ar
    27    42    43   ar
    28    43    44   ar
    29    26    27    1
    30    27    28   am
    31    28    29    2
    32    28    31    1
    33    31    32    1
    34    32    33    1
    35    33    34   ar
    36    34    35   ar
    37    35    36   ar
    38    36    37   ar
    39    10    11   ar
    40    11    12   ar
    41    12    13   ar
    42    13     5   ar
    43    12     7   ar
    44    44    39   ar
    45    37    33   ar
    46    24    25    1
    47    27    30    1
