@<TRIPOS>MOLECULE
*****
 23 25 0 0 0
SMALL
GASTEIGER

@<TRIPOS>ATOM
      1 N          63.4347   86.9374   16.1714 N.3     1  UNL1       -0.2726
      2 C          64.1678   87.1431   14.8790 C.3     1  UNL1        0.0721
      3 C          64.4395   88.5327   14.3839 C.3     1  UNL1        0.0178
      4 C          63.9782   89.7166   15.1810 C.3     1  UNL1        0.0087
      5 C          63.2450   89.5109   16.4735 C.3     1  UNL1        0.0178
      6 C          62.9733   88.1213   16.9686 C.3     1  UNL1        0.0721
      7 C          63.1630   85.5478   16.6665 C.3     1  UNL1        0.0759
      8 C          62.3449   84.6027   15.8373 C.3     1  UNL1        0.0646
      9 C          63.0029   83.4379   15.1589 C.3     1  UNL1        0.2068
     10 O          64.1300   83.6694   14.1965 O.3     1  UNL1       -0.4754
     11 C          63.2744   84.1642    9.8064 C.ar    1  UNL1        0.0002
     12 C          64.2392   83.1128   10.2687 C.ar    1  UNL1        0.0031
     13 C          64.5243   82.9478   11.7320 C.ar    1  UNL1        0.0369
     14 C          63.8448   83.8343   12.7332 C.ar    1  UNL1        0.1386
     15 C          62.8800   84.8857   12.2709 C.ar    1  UNL1        0.0369
     16 C          62.5948   85.0507   10.8075 C.ar    1  UNL1        0.0031
     17 C          64.2499   91.1062   14.6859 C.3     1  UNL1        0.0453
     18 C          65.5742   91.7547   14.9606 C.ar    1  UNL1        0.0541
     19 C          66.8058   91.6383   14.1122 C.ar    1  UNL1        0.1131
     20 N          67.8923   92.4451   14.7591 N.ar    1  UNL1       -0.2229
     21 C          67.3322   93.0602   16.0074 C.ar    1  UNL1        0.1748
     22 N          65.8996   92.6334   16.1318 N.ar    1  UNL1       -0.3382
     23 H          65.2814   92.8858   16.8553 H       1  UNL1        0.1672
@<TRIPOS>BOND
     1    11    12   ar
     2    12    13   ar
     3    13    14   ar
     4    14    10    1
     5    10     9    1
     6     9     8    1
     7     8     7    1
     8     7     1    1
     9     1     2    1
    10     2     3    1
    11     3     4    1
    12     4    17    1
    13    17    18    1
    14    18    19   ar
    15    19    20   ar
    16    20    21   ar
    17    21    22   ar
    18     4     5    1
    19     5     6    1
    20    14    15   ar
    21    15    16   ar
    22    16    11   ar
    23     6     1    1
    24    22    18   ar
    25    22    23    1
@<TRIPOS>MOLECULE
*****
 23 25 0 0 0
SMALL
GASTEIGER

@<TRIPOS>ATOM
      1 N          62.4111   90.2815   11.6546 N.3     1  UNL1       -0.2726
      2 C          62.9130   91.0582   10.4736 C.3     1  UNL1        0.0721
      3 C          64.1409   91.9101   10.6031 C.3     1  UNL1        0.0178
      4 C          64.8669   91.9851   11.9135 C.3     1  UNL1        0.0087
      5 C          64.3650   91.2083   13.0946 C.3     1  UNL1        0.0178
      6 C          63.1371   90.3565   12.9651 C.3     1  UNL1        0.0721
      7 C          61.1833   89.4297   11.5251 C.3     1  UNL1        0.0759
      8 C          60.1294   89.7813   10.5172 C.3     1  UNL1        0.0646
      9 C          59.9883   88.9679    9.2648 C.3     1  UNL1        0.2068
     10 O          59.8019   87.4821    9.3525 O.3     1  UNL1       -0.4754
     11 C          62.6544   84.7271    7.2258 C.ar    1  UNL1        0.0002
     12 C          61.2556   84.8998    6.7127 C.ar    1  UNL1        0.0031
     13 C          60.3047   85.8182    7.4216 C.ar    1  UNL1        0.0369
     14 C          60.7527   86.5638    8.6436 C.ar    1  UNL1        0.1386
     15 C          62.1516   86.3910    9.1567 C.ar    1  UNL1        0.0369
     16 C          63.1024   85.4727    8.4478 C.ar    1  UNL1        0.0031
     17 C          66.0947   92.8369   12.0430 C.3     1  UNL1        0.0453
     18 C          67.0330   92.9817   10.8817 C.ar    1  UNL1        0.0541
     19 C          66.9473   94.0206    9.8031 C.ar    1  UNL1        0.1131
     20 N          68.0830   93.7940    8.8499 N.ar    1  UNL1       -0.2229
     21 C          68.8707   92.6149    9.3394 C.ar    1  UNL1        0.1748
     22 N          68.2217   92.1130   10.5951 N.ar    1  UNL1       -0.3382
     23 H          68.5231   91.3477   11.1361 H       1  UNL1        0.1672
@<TRIPOS>BOND
     1    11    12   ar
     2    12    13   ar
     3    13    14   ar
     4    14    10    1
     5    10     9    1
     6     9     8    1
     7     8     7    1
     8     7     1    1
     9     1     2    1
    10     2     3    1
    11     3     4    1
    12     4    17    1
    13    17    18    1
    14    18    19   ar
    15    19    20   ar
    16    20    21   ar
    17    21    22   ar
    18     4     5    1
    19     5     6    1
    20    14    15   ar
    21    15    16   ar
    22    16    11   ar
    23     6     1    1
    24    22    18   ar
    25    22    23    1
@<TRIPOS>MOLECULE
*****
 23 25 0 0 0
SMALL
GASTEIGER

@<TRIPOS>ATOM
      1 N          62.5191   90.1903   11.4477 N.3     1  UNL1       -0.2726
      2 C          63.0536   91.0877   10.3712 C.3     1  UNL1        0.0721
      3 C          64.2225   91.9842   10.6539 C.3     1  UNL1        0.0178
      4 C          64.8569   91.9833   12.0131 C.3     1  UNL1        0.0087
      5 C          64.3224   91.0859   13.0897 C.3     1  UNL1        0.0178
      6 C          63.1535   90.1894   12.8070 C.3     1  UNL1        0.0721
      7 C          61.3501   89.2939   11.1651 C.3     1  UNL1        0.0759
      8 C          61.4927   88.1592   10.1943 C.3     1  UNL1        0.0646
      9 C          60.9869   86.7943   10.5565 C.3     1  UNL1        0.2068
     10 O          61.5387   86.0842   11.7571 O.3     1  UNL1       -0.4754
     11 C          64.3884   82.6427   11.2231 C.ar    1  UNL1        0.0002
     12 C          63.9286   83.4276   10.0305 C.ar    1  UNL1        0.0031
     13 C          62.9786   84.5748   10.2085 C.ar    1  UNL1        0.0369
     14 C          62.4886   84.9371   11.5791 C.ar    1  UNL1        0.1386
     15 C          62.9485   84.1522   12.7717 C.ar    1  UNL1        0.0369
     16 C          63.8984   83.0050   12.5937 C.ar    1  UNL1        0.0031
     17 C          66.0259   92.8798   12.2958 C.3     1  UNL1        0.0453
     18 C          66.7462   92.7817   13.6078 C.ar    1  UNL1        0.0541
     19 C          67.9528   91.9365   13.8901 C.ar    1  UNL1        0.1131
     20 N          68.3388   92.1440   15.3247 N.ar    1  UNL1       -0.2229
     21 C          67.3707   93.1175   15.9289 C.ar    1  UNL1        0.1748
     22 N          66.3865   93.5116   14.8678 N.ar    1  UNL1       -0.3382
     23 H          65.6361   94.1392   14.9789 H       1  UNL1        0.1672
@<TRIPOS>BOND
     1    11    12   ar
     2    12    13   ar
     3    13    14   ar
     4    14    10    1
     5    10     9    1
     6     9     8    1
     7     8     7    1
     8     7     1    1
     9     1     2    1
    10     2     3    1
    11     3     4    1
    12     4    17    1
    13    17    18    1
    14    18    19   ar
    15    19    20   ar
    16    20    21   ar
    17    21    22   ar
    18     4     5    1
    19     5     6    1
    20    14    15   ar
    21    15    16   ar
    22    16    11   ar
    23     6     1    1
    24    22    18   ar
    25    22    23    1
@<TRIPOS>MOLECULE
*****
 23 25 0 0 0
SMALL
GASTEIGER

@<TRIPOS>ATOM
      1 N          61.6109   86.6793    9.7992 N.3     1  UNL1       -0.2726
      2 C          61.5889   86.1001   11.1826 C.3     1  UNL1        0.0721
      3 C          62.3879   84.8692   11.4932 C.3     1  UNL1        0.0178
      4 C          63.2090   84.2175   10.4203 C.3     1  UNL1        0.0087
      5 C          63.2311   84.7967    9.0368 C.3     1  UNL1        0.0178
      6 C          62.4320   86.0276    8.7262 C.3     1  UNL1        0.0721
      7 C          60.8118   87.9102    9.4886 C.3     1  UNL1        0.0759
      8 C          61.3722   89.2664    9.7996 C.3     1  UNL1        0.0646
      9 C          61.1738   89.8659   11.1602 C.3     1  UNL1        0.2068
     10 O          61.9782   89.3674   12.3239 O.3     1  UNL1       -0.4754
     11 C          65.6570   91.6012   13.6381 C.ar    1  UNL1        0.0002
     12 C          65.1370   90.4614   14.4630 C.ar    1  UNL1        0.0031
     13 C          63.9107   89.7168   14.0249 C.ar    1  UNL1        0.0369
     14 C          63.2045   90.1120   12.7620 C.ar    1  UNL1        0.1386
     15 C          63.7245   91.2517   11.9371 C.ar    1  UNL1        0.0369
     16 C          64.9508   91.9963   12.3752 C.ar    1  UNL1        0.0031
     17 C          64.0080   82.9867   10.7309 C.3     1  UNL1        0.0453
     18 C          63.6308   82.1221   11.8971 C.ar    1  UNL1        0.0541
     19 C          64.0761   82.3131   13.3168 C.ar    1  UNL1        0.1131
     20 N          63.4626   81.2237   14.1456 N.ar    1  UNL1       -0.2229
     21 C          62.6382   80.3594   13.2381 C.ar    1  UNL1        0.1748
     22 N          62.7422   80.9147   11.8486 N.ar    1  UNL1       -0.3382
     23 H          62.3041   80.5505   11.0456 H       1  UNL1        0.1672
@<TRIPOS>BOND
     1    11    12   ar
     2    12    13   ar
     3    13    14   ar
     4    14    10    1
     5    10     9    1
     6     9     8    1
     7     8     7    1
     8     7     1    1
     9     1     2    1
    10     2     3    1
    11     3     4    1
    12     4    17    1
    13    17    18    1
    14    18    19   ar
    15    19    20   ar
    16    20    21   ar
    17    21    22   ar
    18     4     5    1
    19     5     6    1
    20    14    15   ar
    21    15    16   ar
    22    16    11   ar
    23     6     1    1
    24    22    18   ar
    25    22    23    1
@<TRIPOS>MOLECULE
*****
 23 25 0 0 0
SMALL
GASTEIGER

@<TRIPOS>ATOM
      1 N          63.5370   83.3251   12.3596 N.3     1  UNL1       -0.2726
      2 C          62.6365   84.5230   12.4233 C.3     1  UNL1        0.0721
      3 C          62.3449   85.3090   11.1795 C.3     1  UNL1        0.0178
      4 C          62.9538   84.8972    9.8720 C.3     1  UNL1        0.0087
      5 C          63.8544   83.6993    9.8083 C.3     1  UNL1        0.0178
      6 C          64.1460   82.9132   11.0521 C.3     1  UNL1        0.0721
      7 C          63.8285   82.5390   13.6034 C.3     1  UNL1        0.0759
      8 C          63.6806   83.1834   14.9499 C.3     1  UNL1        0.0646
      9 C          64.2807   84.5343   15.2048 C.3     1  UNL1        0.2068
     10 O          63.6208   85.4792   16.1648 O.3     1  UNL1       -0.4754
     11 C          63.7765   89.9147   15.4219 C.ar    1  UNL1        0.0002
     12 C          64.3895   88.9668   14.4341 C.ar    1  UNL1        0.0031
     13 C          64.3376   87.4883   14.6818 C.ar    1  UNL1        0.0369
     14 C          63.6727   86.9577   15.9172 C.ar    1  UNL1        0.1386
     15 C          63.0597   87.9055   16.9050 C.ar    1  UNL1        0.0369
     16 C          63.1117   89.3840   16.6573 C.ar    1  UNL1        0.0031
     17 C          62.6623   85.6833    8.6282 C.3     1  UNL1        0.0453
     18 C          61.3394   86.3722    8.4692 C.ar    1  UNL1        0.0541
     19 C          60.1485   85.8350    7.7321 C.ar    1  UNL1        0.1131
     20 N          59.0482   86.8501    7.8267 N.ar    1  UNL1       -0.2229
     21 C          59.5591   88.0146    8.6223 C.ar    1  UNL1        0.1748
     22 N          60.9751   87.7193    9.0193 N.ar    1  UNL1       -0.3382
     23 H          61.5623   88.3064    9.5482 H       1  UNL1        0.1672
@<TRIPOS>BOND
     1    11    12   ar
     2    12    13   ar
     3    13    14   ar
     4    14    10    1
     5    10     9    1
     6     9     8    1
     7     8     7    1
     8     7     1    1
     9     1     2    1
    10     2     3    1
    11     3     4    1
    12     4    17    1
    13    17    18    1
    14    18    19   ar
    15    19    20   ar
    16    20    21   ar
    17    21    22   ar
    18     4     5    1
    19     5     6    1
    20    14    15   ar
    21    15    16   ar
    22    16    11   ar
    23     6     1    1
    24    22    18   ar
    25    22    23    1
@<TRIPOS>MOLECULE
*****
 23 25 0 0 0
SMALL
GASTEIGER

@<TRIPOS>ATOM
      1 N          62.6451   90.2397   11.6860 N.3     1  UNL1       -0.2726
      2 C          63.1796   91.0556   10.5465 C.3     1  UNL1        0.0721
      3 C          64.3503   91.9682   10.7619 C.3     1  UNL1        0.0178
      4 C          64.9866   92.0650   12.1168 C.3     1  UNL1        0.0087
      5 C          64.4521   91.2491   13.2564 C.3     1  UNL1        0.0178
      6 C          63.2813   90.3364   13.0410 C.3     1  UNL1        0.0721
      7 C          61.4743   89.3270   11.4707 C.3     1  UNL1        0.0759
      8 C          61.4244   88.4444   10.2588 C.3     1  UNL1        0.0646
      9 C          61.0100   87.0090   10.3930 C.3     1  UNL1        0.2068
     10 O          61.3949   86.2283   11.6146 O.3     1  UNL1       -0.4754
     11 C          64.4622   82.9492   11.3154 C.ar    1  UNL1        0.0002
     12 C          64.0324   83.4537   12.6610 C.ar    1  UNL1        0.0031
     13 C          63.0100   84.5468   12.7608 C.ar    1  UNL1        0.0369
     14 C          62.4173   85.1353   11.5149 C.ar    1  UNL1        0.1386
     15 C          62.8470   84.6307   10.1692 C.ar    1  UNL1        0.0369
     16 C          63.8694   83.5377   10.0695 C.ar    1  UNL1        0.0031
     17 C          66.1573   92.9777   12.3321 C.3     1  UNL1        0.0453
     18 C          66.5997   93.9015   11.2363 C.ar    1  UNL1        0.0541
     19 C          66.1596   95.3234   11.0505 C.ar    1  UNL1        0.1131
     20 N          66.8477   95.8663    9.8332 N.ar    1  UNL1       -0.2229
     21 C          67.7131   94.7798    9.2667 C.ar    1  UNL1        0.1748
     22 N          67.5597   93.5655   10.1339 N.ar    1  UNL1       -0.3382
     23 H          68.0102   92.7000   10.0025 H       1  UNL1        0.1672
@<TRIPOS>BOND
     1    11    12   ar
     2    12    13   ar
     3    13    14   ar
     4    14    10    1
     5    10     9    1
     6     9     8    1
     7     8     7    1
     8     7     1    1
     9     1     2    1
    10     2     3    1
    11     3     4    1
    12     4    17    1
    13    17    18    1
    14    18    19   ar
    15    19    20   ar
    16    20    21   ar
    17    21    22   ar
    18     4     5    1
    19     5     6    1
    20    14    15   ar
    21    15    16   ar
    22    16    11   ar
    23     6     1    1
    24    22    18   ar
    25    22    23    1
@<TRIPOS>MOLECULE
*****
 23 25 0 0 0
SMALL
GASTEIGER

@<TRIPOS>ATOM
      1 N          63.2609   84.1002   10.4299 N.3     1  UNL1       -0.2726
      2 C          62.4138   84.7903   11.4576 C.3     1  UNL1        0.0721
      3 C          61.5829   85.9776   11.0701 C.3     1  UNL1        0.0178
      4 C          61.5992   86.4748    9.6551 C.3     1  UNL1        0.0087
      5 C          62.4464   85.7847    8.6273 C.3     1  UNL1        0.0178
      6 C          63.2773   84.5975    9.0147 C.3     1  UNL1        0.0721
      7 C          64.0918   82.9130   10.8173 C.3     1  UNL1        0.0759
      8 C          63.4261   81.6485   11.2735 C.3     1  UNL1        0.0646
      9 C          62.9406   81.5244   12.6873 C.3     1  UNL1        0.2068
     10 O          63.8629   81.8397   13.8274 O.3     1  UNL1       -0.4754
     11 C          63.6929   85.8765   15.8087 C.ar    1  UNL1        0.0002
     12 C          62.6104   84.8699   16.0633 C.ar    1  UNL1        0.0031
     13 C          62.6671   83.5243   15.4029 C.ar    1  UNL1        0.0369
     14 C          63.8062   83.1853   14.4878 C.ar    1  UNL1        0.1386
     15 C          64.8887   84.1920   14.2332 C.ar    1  UNL1        0.0369
     16 C          64.8320   85.5376   14.8936 C.ar    1  UNL1        0.0031
     17 C          60.7684   87.6621    9.2677 C.3     1  UNL1        0.0453
     18 C          60.2405   88.5853   10.3254 C.ar    1  UNL1        0.0541
     19 C          60.2319   90.0840   10.2633 C.ar    1  UNL1        0.1131
     20 N          59.6145   90.5970   11.5305 N.ar    1  UNL1       -0.2229
     21 C          59.2416   89.4152   12.3758 C.ar    1  UNL1        0.1748
     22 N          59.6285   88.1720   11.6310 N.ar    1  UNL1       -0.3382
     23 H          59.5028   87.2471   11.9441 H       1  UNL1        0.1672
@<TRIPOS>BOND
     1    11    12   ar
     2    12    13   ar
     3    13    14   ar
     4    14    10    1
     5    10     9    1
     6     9     8    1
     7     8     7    1
     8     7     1    1
     9     1     2    1
    10     2     3    1
    11     3     4    1
    12     4    17    1
    13    17    18    1
    14    18    19   ar
    15    19    20   ar
    16    20    21   ar
    17    21    22   ar
    18     4     5    1
    19     5     6    1
    20    14    15   ar
    21    15    16   ar
    22    16    11   ar
    23     6     1    1
    24    22    18   ar
    25    22    23    1
@<TRIPOS>MOLECULE
*****
 23 25 0 0 0
SMALL
GASTEIGER

@<TRIPOS>ATOM
      1 N          63.2972   83.7658   11.6740 N.3     1  UNL1       -0.2726
      2 C          62.3691   84.8122   12.2156 C.3     1  UNL1        0.0721
      3 C          61.8380   85.8844   11.3109 C.3     1  UNL1        0.0178
      4 C          62.2352   85.9102    9.8647 C.3     1  UNL1        0.0087
      5 C          63.1634   84.8637    9.3231 C.3     1  UNL1        0.0178
      6 C          63.6944   83.7915   10.2277 C.3     1  UNL1        0.0721
      7 C          63.8283   82.6935   12.5786 C.3     1  UNL1        0.0759
      8 C          63.5400   82.7428   14.0498 C.3     1  UNL1        0.0646
      9 C          64.4132   83.5565   14.9584 C.3     1  UNL1        0.2068
     10 O          64.8054   84.9513   14.5705 O.3     1  UNL1       -0.4754
     11 C          63.0611   88.4716   16.7649 C.ar    1  UNL1        0.0002
     12 C          63.8090   88.6831   15.4821 C.ar    1  UNL1        0.0031
     13 C          64.3905   87.5097   14.7506 C.ar    1  UNL1        0.0369
     14 C          64.2239   86.1247   15.3020 C.ar    1  UNL1        0.1386
     15 C          63.4760   85.9132   16.5848 C.ar    1  UNL1        0.0369
     16 C          62.8946   87.0866   17.3163 C.ar    1  UNL1        0.0031
     17 C          61.7041   86.9824    8.9601 C.3     1  UNL1        0.0453
     18 C          61.3539   88.3297    9.5189 C.ar    1  UNL1        0.0541
     19 C          60.0188   89.0060    9.4183 C.ar    1  UNL1        0.1131
     20 N          60.1171   90.3315   10.1136 N.ar    1  UNL1       -0.2229
     21 C          61.5129   90.4743   10.6440 C.ar    1  UNL1        0.1748
     22 N          62.2773   89.2371   10.2764 N.ar    1  UNL1       -0.3382
     23 H          63.2196   89.0530   10.4942 H       1  UNL1        0.1672
@<TRIPOS>BOND
     1    11    12   ar
     2    12    13   ar
     3    13    14   ar
     4    14    10    1
     5    10     9    1
     6     9     8    1
     7     8     7    1
     8     7     1    1
     9     1     2    1
    10     2     3    1
    11     3     4    1
    12     4    17    1
    13    17    18    1
    14    18    19   ar
    15    19    20   ar
    16    20    21   ar
    17    21    22   ar
    18     4     5    1
    19     5     6    1
    20    14    15   ar
    21    15    16   ar
    22    16    11   ar
    23     6     1    1
    24    22    18   ar
    25    22    23    1
@<TRIPOS>MOLECULE
*****
 23 25 0 0 0
SMALL
GASTEIGER

@<TRIPOS>ATOM
      1 N          63.2897   84.0073   10.3478 N.3     1  UNL1       -0.2726
      2 C          62.6651   84.7079   11.5178 C.3     1  UNL1        0.0721
      3 C          62.0548   86.0666   11.3400 C.3     1  UNL1        0.0178
      4 C          62.0692   86.7247    9.9922 C.3     1  UNL1        0.0087
      5 C          62.6938   86.0241    8.8221 C.3     1  UNL1        0.0178
      6 C          63.3041   84.6654    8.9999 C.3     1  UNL1        0.0721
      7 C          63.9000   82.6487   10.5256 C.3     1  UNL1        0.0759
      8 C          63.0833   81.5290   11.0996 C.3     1  UNL1        0.0646
      9 C          63.0629   81.2990   12.5817 C.3     1  UNL1        0.2068
     10 O          64.1691   81.8377   13.4396 O.3     1  UNL1       -0.4754
     11 C          63.5532   85.6258   15.7892 C.ar    1  UNL1        0.0002
     12 C          64.7837   85.4566   14.9482 C.ar    1  UNL1        0.0031
     13 C          64.9890   84.1938   14.1650 C.ar    1  UNL1        0.0369
     14 C          63.9638   83.1004   14.2228 C.ar    1  UNL1        0.1386
     15 C          62.7334   83.2697   15.0638 C.ar    1  UNL1        0.0369
     16 C          62.5281   84.5324   15.8470 C.ar    1  UNL1        0.0031
     17 C          61.4589   88.0833    9.8144 C.3     1  UNL1        0.0453
     18 C          62.1813   89.3007   10.3103 C.ar    1  UNL1        0.0541
     19 C          62.7495   89.4897   11.6856 C.ar    1  UNL1        0.1131
     20 N          63.3817   90.8487   11.7433 N.ar    1  UNL1       -0.2229
     21 C          63.2044   91.4996   10.4035 C.ar    1  UNL1        0.1748
     22 N          62.4625   90.5429    9.5179 N.ar    1  UNL1       -0.3382
     23 H          62.2053   90.7023    8.5811 H       1  UNL1        0.1672
@<TRIPOS>BOND
     1    11    12   ar
     2    12    13   ar
     3    13    14   ar
     4    14    10    1
     5    10     9    1
     6     9     8    1
     7     8     7    1
     8     7     1    1
     9     1     2    1
    10     2     3    1
    11     3     4    1
    12     4    17    1
    13    17    18    1
    14    18    19   ar
    15    19    20   ar
    16    20    21   ar
    17    21    22   ar
    18     4     5    1
    19     5     6    1
    20    14    15   ar
    21    15    16   ar
    22    16    11   ar
    23     6     1    1
    24    22    18   ar
    25    22    23    1
