@<TRIPOS>MOLECULE
*****
 32 35 0 0 0
SMALL
GASTEIGER

@<TRIPOS>ATOM
      1 C          64.0798   91.8596   11.1626 C.3     1  UNL1        0.0964
      2 C          64.2212   91.0114   12.3918 C.3     1  UNL1        0.0430
      3 C          63.3226   89.8201   12.2387 C.3     1  UNL1        0.0985
      4 N          62.6259   89.9320   10.9151 N.am    1  UNL1       -0.2443
      5 C          61.6352   88.9549   10.3548 C.2     1  UNL1        0.4048
      6 O          61.0174   89.2009    9.0103 O.2     1  UNL1       -0.2262
      7 C          63.0938   91.1925   10.2500 C.3     1  UNL1        0.1163
      8 C          66.2207   93.3212   11.3367 C.2     1  UNL1        0.4014
      9 O          66.9249   92.2047   12.0492 O.2     1  UNL1       -0.2264
     10 N          64.7981   93.1485   10.8935 N.am    1  UNL1       -0.2705
     11 H          64.3358   93.8813   10.4258 H       1  UNL1        0.1527
     12 O          66.9390   94.6101   11.0675 O.3     1  UNL1       -0.4419
     13 C          66.1803   96.3056   10.0428 C.3     1  UNL1        0.0437
     14 C          67.0386   95.1346    9.6658 C.3     1  UNL1        0.1378
     15 C          67.8970   93.9637    9.2887 C.3     1  UNL1        0.0437
     16 C          67.1383   95.6591    8.2640 C.3     1  UNL1        0.0437
     17 O          61.2624   87.7319   11.1391 O.3     1  UNL1       -0.4383
     18 C          61.9862   86.4395   10.9025 C.3     1  UNL1        0.1702
     19 C          62.3226   85.5456   12.0591 C.3     1  UNL1        0.0407
     20 C          62.7101   85.1473   10.6658 C.3     1  UNL1        0.0036
     21 C          63.4339   83.8550   10.4292 C.3     1  UNL1        0.0007
     22 C          63.0975   84.7489    9.2726 C.3     1  UNL1        0.0036
     23 C          62.3737   86.0412    9.5092 C.3     1  UNL1        0.0407
     24 C          63.4124   83.6455   11.5069 C.3     1  UNL1        0.0122
     25 C          63.3829   83.3594   12.9791 C.3     1  UNL1        0.0688
     26 C          63.7703   82.9611   11.5858 C.3     1  UNL1        0.0086
     27 C          62.6590   84.6517   13.2157 C.3     1  UNL1        0.0122
     28 C          63.7193   82.4655   14.1357 C.2     1  UNL1        0.2184
     29 N          64.4220   83.0255   15.3368 N.am    1  UNL1       -0.3288
     30 O          63.3530   81.0117   14.0912 O.2     1  UNL1       -0.2754
     31 H          64.6624   83.9797   15.3659 H       1  UNL1        0.1449
     32 H          64.6428   82.4388   16.0959 H       1  UNL1        0.1449
@<TRIPOS>BOND
     1    13    14    1
     2    14    15    1
     3    14    16    1
     4    14    12    1
     5    12     8    1
     6     8     9    2
     7     8    10   am
     8     1    10    1
     9     1     2    1
    10     2     3    1
    11     3     4    1
    12     4     5   am
    13     5     6    2
    14     5    17    1
    15    18    17    1
    16    18    19    1
    17    19    20    1
    18    20    21    1
    19    21    22    1
    20    22    23    1
    21    23    24    1
    22    24    25    1
    23    25    28    1
    24    28    29   am
    25    28    30    2
    26    25    26    1
    27    25    27    1
    28     4     7    1
    29     7     1    1
    30    23    18    1
    31    27    19    1
    32    26    21    1
    33    10    11    1
    34    29    31    1
    35    29    32    1
@<TRIPOS>MOLECULE
*****
 32 35 0 0 0
SMALL
GASTEIGER

@<TRIPOS>ATOM
      1 C          63.4100   90.5296   12.1932 C.3     1  UNL1        0.0964
      2 C          63.5819   89.1119   12.6523 C.3     1  UNL1        0.0430
      3 C          62.6149   88.2568   11.8883 C.3     1  UNL1        0.0985
      4 N          61.8454   89.1460   10.9570 N.am    1  UNL1       -0.2443
      5 C          60.7727   88.7074   10.0046 C.2     1  UNL1        0.4048
      6 O          60.0875   89.7159    9.1307 O.2     1  UNL1       -0.2262
      7 C          62.3368   90.5506   11.1455 C.3     1  UNL1        0.1163
      8 C          65.0723   91.5827   13.8895 C.2     1  UNL1        0.4014
      9 O          65.2012   90.2597   14.5845 O.2     1  UNL1       -0.2264
     10 N          64.1767   91.7176   12.6938 N.am    1  UNL1       -0.2705
     11 H          64.0920   92.5859   12.2377 H       1  UNL1        0.1527
     12 O          65.8390   92.7707   14.3902 O.3     1  UNL1       -0.4419
     13 C          67.6337   92.3528   13.3392 C.3     1  UNL1        0.0437
     14 C          67.2823   92.6254   14.7718 C.3     1  UNL1        0.1378
     15 C          66.9310   92.8979   16.2043 C.3     1  UNL1        0.0437
     16 C          68.7257   92.4800   15.1534 C.3     1  UNL1        0.0437
     17 O          60.3853   87.2605    9.9259 O.3     1  UNL1       -0.4383
     18 C          61.4317   86.2167    9.6697 C.3     1  UNL1        0.1702
     19 C          61.9829   85.4118   10.8091 C.3     1  UNL1        0.0407
     20 C          62.4781   85.1730    9.4136 C.3     1  UNL1        0.0036
     21 C          63.5245   84.1292    9.1574 C.3     1  UNL1        0.0007
     22 C          62.9733   84.9342    8.0180 C.3     1  UNL1        0.0036
     23 C          61.9270   85.9779    8.2741 C.3     1  UNL1        0.0407
     24 C          63.5482   83.8899   10.2289 C.3     1  UNL1        0.0122
     25 C          63.5805   83.5631   11.6924 C.3     1  UNL1        0.0688
     26 C          64.0757   83.3243   10.2969 C.3     1  UNL1        0.0086
     27 C          62.5341   84.6068   11.9486 C.3     1  UNL1        0.0122
     28 C          64.1316   82.7582   12.8319 C.2     1  UNL1        0.2184
     29 N          64.9957   83.4164   13.8662 N.am    1  UNL1       -0.3288
     30 O          63.8187   81.2950   12.9369 O.2     1  UNL1       -0.2754
     31 H          65.2011   84.3768   13.7973 H       1  UNL1        0.1449
     32 H          65.3574   82.8881   14.6141 H       1  UNL1        0.1449
@<TRIPOS>BOND
     1    13    14    1
     2    14    15    1
     3    14    16    1
     4    14    12    1
     5    12     8    1
     6     8     9    2
     7     8    10   am
     8     1    10    1
     9     1     2    1
    10     2     3    1
    11     3     4    1
    12     4     5   am
    13     5     6    2
    14     5    17    1
    15    18    17    1
    16    18    19    1
    17    19    20    1
    18    20    21    1
    19    21    22    1
    20    22    23    1
    21    23    24    1
    22    24    25    1
    23    25    28    1
    24    28    29   am
    25    28    30    2
    26    25    26    1
    27    25    27    1
    28     4     7    1
    29     7     1    1
    30    23    18    1
    31    27    19    1
    32    26    21    1
    33    10    11    1
    34    29    31    1
    35    29    32    1
@<TRIPOS>MOLECULE
*****
 32 35 0 0 0
SMALL
GASTEIGER

@<TRIPOS>ATOM
      1 C          63.7769   86.0426   13.5270 C.3     1  UNL1        0.0964
      2 C          64.1815   87.1522   14.4518 C.3     1  UNL1        0.0430
      3 C          63.7474   88.4497   13.8367 C.3     1  UNL1        0.0985
      4 N          63.0745   88.1419   12.5319 N.am    1  UNL1       -0.2443
      5 C          62.4866   89.1456   11.5848 C.2     1  UNL1        0.4048
      6 O          61.8423   88.6865   10.3104 O.2     1  UNL1       -0.2262
      7 C          63.0928   86.6543   12.3405 C.3     1  UNL1        0.1163
      8 C          63.0259   83.7689   14.5350 C.2     1  UNL1        0.4014
      9 O          61.7992   84.4236   15.0978 O.2     1  UNL1       -0.2264
     10 N          64.0147   84.5785   13.7496 N.am    1  UNL1       -0.2705
     11 H          64.8198   84.1488   13.3803 H       1  UNL1        0.1527
     12 O          63.2637   82.3048   14.7577 O.3     1  UNL1       -0.4419
     13 C          61.5256   81.2000   14.2492 C.3     1  UNL1        0.0437
     14 C          62.9111   81.3162   13.6861 C.3     1  UNL1        0.1378
     15 C          64.2965   81.4323   13.1230 C.3     1  UNL1        0.0437
     16 C          62.5584   80.3276   12.6145 C.3     1  UNL1        0.0437
     17 O          62.5430   90.6083   11.9121 O.3     1  UNL1       -0.4383
     18 C          63.8456   91.3471   11.8235 C.3     1  UNL1        0.1702
     19 C          64.7042   91.5023   13.0436 C.3     1  UNL1        0.0407
     20 C          65.1480   92.0857   11.7350 C.3     1  UNL1        0.0036
     21 C          66.4505   92.8244   11.6464 C.3     1  UNL1        0.0007
     22 C          65.5919   92.6691   10.4263 C.3     1  UNL1        0.0036
     23 C          64.2894   91.9305   10.5148 C.3     1  UNL1        0.0407
     24 C          66.6259   92.6434   12.7152 C.3     1  UNL1        0.0122
     25 C          66.8653   92.3962   14.1752 C.3     1  UNL1        0.0688
     26 C          67.3091   92.9796   12.8665 C.3     1  UNL1        0.0086
     27 C          65.5628   91.6575   14.2637 C.3     1  UNL1        0.0122
     28 C          67.7239   92.5515   15.3953 C.2     1  UNL1        0.2184
     29 N          69.0725   91.8972   15.4515 N.am    1  UNL1       -0.3288
     30 O          67.2340   93.3610   16.5591 O.2     1  UNL1       -0.2754
     31 H          69.3941   91.3658   14.6877 H       1  UNL1        0.1449
     32 H          69.6360   91.9991   16.2523 H       1  UNL1        0.1449
@<TRIPOS>BOND
     1    13    14    1
     2    14    15    1
     3    14    16    1
     4    14    12    1
     5    12     8    1
     6     8     9    2
     7     8    10   am
     8     1    10    1
     9     1     2    1
    10     2     3    1
    11     3     4    1
    12     4     5   am
    13     5     6    2
    14     5    17    1
    15    18    17    1
    16    18    19    1
    17    19    20    1
    18    20    21    1
    19    21    22    1
    20    22    23    1
    21    23    24    1
    22    24    25    1
    23    25    28    1
    24    28    29   am
    25    28    30    2
    26    25    26    1
    27    25    27    1
    28     4     7    1
    29     7     1    1
    30    23    18    1
    31    27    19    1
    32    26    21    1
    33    10    11    1
    34    29    31    1
    35    29    32    1
@<TRIPOS>MOLECULE
*****
 32 35 0 0 0
SMALL
GASTEIGER

@<TRIPOS>ATOM
      1 C          64.4417   92.3335   10.9685 C.3     1  UNL1        0.0964
      2 C          63.5574   91.5128   10.0771 C.3     1  UNL1        0.0430
      3 C          63.2213   90.2423   10.8004 C.3     1  UNL1        0.0985
      4 N          63.8979   90.2779   12.1386 N.am    1  UNL1       -0.2443
      5 C          63.8319   89.2087   13.1886 C.2     1  UNL1        0.4048
      6 O          64.5647   89.3848   14.4855 O.2     1  UNL1       -0.2262
      7 C          64.6521   91.5703   12.2425 C.3     1  UNL1        0.1163
      8 C          66.4595   93.9696   10.9255 C.2     1  UNL1        0.4014
      9 O          67.3308   92.9109   11.5336 O.2     1  UNL1       -0.2264
     10 N          65.0149   93.6809   10.6430 N.am    1  UNL1       -0.2705
     11 H          64.4429   94.3757   10.2439 H       1  UNL1        0.1527
     12 O          67.0326   95.3170   10.5999 O.3     1  UNL1       -0.4419
     13 C          65.6742   96.8547   10.0611 C.3     1  UNL1        0.0437
     14 C          66.6591   96.0012    9.3184 C.3     1  UNL1        0.1378
     15 C          67.6439   95.1477    8.5757 C.3     1  UNL1        0.0437
     16 C          66.2856   96.6854    8.0369 C.3     1  UNL1        0.0437
     17 O          63.0331   87.9633   12.9417 O.3     1  UNL1       -0.4383
     18 C          63.5089   86.6475   13.4825 C.3     1  UNL1        0.1702
     19 C          63.2254   85.3810   12.7304 C.3     1  UNL1        0.0407
     20 C          63.9846   85.3318   14.0232 C.3     1  UNL1        0.0036
     21 C          64.4603   84.0160   14.5638 C.3     1  UNL1        0.0007
     22 C          64.7438   85.2825   15.3159 C.3     1  UNL1        0.0036
     23 C          64.2681   86.5983   14.7752 C.3     1  UNL1        0.0407
     24 C          64.0196   83.5015   13.6996 C.3     1  UNL1        0.0122
     25 C          63.4177   82.7987   12.5191 C.3     1  UNL1        0.0688
     26 C          64.1769   82.7495   13.8118 C.3     1  UNL1        0.0086
     27 C          62.9419   84.1145   11.9784 C.3     1  UNL1        0.0122
     28 C          63.1342   81.5322   11.7671 C.2     1  UNL1        0.2184
     29 N          62.6207   80.3260   12.4960 N.am    1  UNL1       -0.3288
     30 O          63.3643   81.4718   10.2861 O.2     1  UNL1       -0.2754
     31 H          62.4697   80.3656   13.4681 H       1  UNL1        0.1449
     32 H          62.4346   79.4947   12.0025 H       1  UNL1        0.1449
@<TRIPOS>BOND
     1    13    14    1
     2    14    15    1
     3    14    16    1
     4    14    12    1
     5    12     8    1
     6     8     9    2
     7     8    10   am
     8     1    10    1
     9     1     2    1
    10     2     3    1
    11     3     4    1
    12     4     5   am
    13     5     6    2
    14     5    17    1
    15    18    17    1
    16    18    19    1
    17    19    20    1
    18    20    21    1
    19    21    22    1
    20    22    23    1
    21    23    24    1
    22    24    25    1
    23    25    28    1
    24    28    29   am
    25    28    30    2
    26    25    26    1
    27    25    27    1
    28     4     7    1
    29     7     1    1
    30    23    18    1
    31    27    19    1
    32    26    21    1
    33    10    11    1
    34    29    31    1
    35    29    32    1
@<TRIPOS>MOLECULE
*****
 32 35 0 0 0
SMALL
GASTEIGER

@<TRIPOS>ATOM
      1 C          62.5471   85.1962   11.3106 C.3     1  UNL1        0.0964
      2 C          62.3651   85.8378    9.9670 C.3     1  UNL1        0.0430
      3 C          62.4523   87.3244   10.1476 C.3     1  UNL1        0.0985
      4 N          62.6881   87.6014   11.6028 N.am    1  UNL1       -0.2443
      5 C          62.8389   88.9561   12.2293 C.2     1  UNL1        0.4048
      6 O          63.0718   89.0777   13.7061 O.2     1  UNL1       -0.2262
      7 C          62.7467   86.2862   12.3216 C.3     1  UNL1        0.1163
      8 C          63.5511   83.1268   12.5187 C.2     1  UNL1        0.4014
      9 O          64.5851   84.0033   13.1609 O.2     1  UNL1       -0.2264
     10 N          62.5321   83.7233   11.5935 N.am    1  UNL1       -0.2705
     11 H          61.8535   83.1480   11.1720 H       1  UNL1        0.1527
     12 O          63.5361   81.6538   12.8016 O.3     1  UNL1       -0.4419
     13 C          62.2269   82.1973   14.3799 C.3     1  UNL1        0.0437
     14 C          62.3370   81.0265   13.4485 C.3     1  UNL1        0.1378
     15 C          62.4470   79.8558   12.5172 C.3     1  UNL1        0.0437
     16 C          61.1378   80.3992   14.0954 C.3     1  UNL1        0.0437
     17 O          62.7566   90.1890   11.3789 O.3     1  UNL1       -0.4383
     18 C          63.8222   91.2402   11.4770 C.3     1  UNL1        0.1702
     19 C          64.5269   91.4745   12.7803 C.3     1  UNL1        0.0407
     20 C          64.8878   92.2913   11.5751 C.3     1  UNL1        0.0036
     21 C          65.9534   93.3424   11.6732 C.3     1  UNL1        0.0007
     22 C          65.2487   93.1081   10.3699 C.3     1  UNL1        0.0036
     23 C          64.1831   92.0570   10.2718 C.3     1  UNL1        0.0407
     24 C          66.0987   93.0962   12.7334 C.3     1  UNL1        0.0122
     25 C          66.2972   92.7599   14.1816 C.3     1  UNL1        0.0688
     26 C          66.6581   93.5767   12.9764 C.3     1  UNL1        0.0086
     27 C          65.2316   91.7087   14.0835 C.3     1  UNL1        0.0122
     28 C          67.0019   92.9942   15.4849 C.2     1  UNL1        0.2184
     29 N          66.2277   92.9784   16.7695 N.am    1  UNL1       -0.3288
     30 O          68.4808   93.2442   15.5035 O.2     1  UNL1       -0.2754
     31 H          65.2571   92.8142   16.7573 H       1  UNL1        0.1449
     32 H          66.6903   93.1322   17.6249 H       1  UNL1        0.1449
@<TRIPOS>BOND
     1    13    14    1
     2    14    15    1
     3    14    16    1
     4    14    12    1
     5    12     8    1
     6     8     9    2
     7     8    10   am
     8     1    10    1
     9     1     2    1
    10     2     3    1
    11     3     4    1
    12     4     5   am
    13     5     6    2
    14     5    17    1
    15    18    17    1
    16    18    19    1
    17    19    20    1
    18    20    21    1
    19    21    22    1
    20    22    23    1
    21    23    24    1
    22    24    25    1
    23    25    28    1
    24    28    29   am
    25    28    30    2
    26    25    26    1
    27    25    27    1
    28     4     7    1
    29     7     1    1
    30    23    18    1
    31    27    19    1
    32    26    21    1
    33    10    11    1
    34    29    31    1
    35    29    32    1
@<TRIPOS>MOLECULE
*****
 32 35 0 0 0
SMALL
GASTEIGER

@<TRIPOS>ATOM
      1 C          63.5949   85.9868   13.2641 C.3     1  UNL1        0.0964
      2 C          63.9818   87.0874   14.2071 C.3     1  UNL1        0.0430
      3 C          63.5738   88.3920   13.5891 C.3     1  UNL1        0.0985
      4 N          62.9348   88.0975   12.2643 N.am    1  UNL1       -0.2443
      5 C          62.3801   89.1116   11.3082 C.2     1  UNL1        0.4048
      6 O          61.7678   88.6655   10.0136 O.2     1  UNL1       -0.2262
      7 C          62.9479   86.6111   12.0635 C.3     1  UNL1        0.1163
      8 C          63.0267   83.7900   14.5294 C.2     1  UNL1        0.4014
      9 O          62.0156   84.5277   15.3562 O.2     1  UNL1       -0.2264
     10 N          63.8163   84.5196   13.4834 N.am    1  UNL1       -0.2705
     11 H          64.4798   84.0354   12.9407 H       1  UNL1        0.1527
     12 O          63.2480   82.3228   14.7487 O.3     1  UNL1       -0.4419
     13 C          61.4784   81.2938   14.1917 C.3     1  UNL1        0.0437
     14 C          62.8856   81.3408   13.6742 C.3     1  UNL1        0.1378
     15 C          64.2927   81.3878   13.1567 C.3     1  UNL1        0.0437
     16 C          62.5233   80.3589   12.5998 C.3     1  UNL1        0.0437
     17 O          62.4378   90.5717   11.6467 O.3     1  UNL1       -0.4383
     18 C          63.7109   91.1716   12.1658 C.3     1  UNL1        0.1702
     19 C          64.6225   91.9167   11.2364 C.3     1  UNL1        0.0407
     20 C          64.9840   91.7714   12.6848 C.3     1  UNL1        0.0036
     21 C          66.2571   92.3713   13.2039 C.3     1  UNL1        0.0007
     22 C          65.3456   91.6261   14.1333 C.3     1  UNL1        0.0036
     23 C          64.0725   91.0263   13.6143 C.3     1  UNL1        0.0407
     24 C          66.4896   92.7476   12.1988 C.3     1  UNL1        0.0122
     25 C          66.8071   93.2617   10.8259 C.3     1  UNL1        0.0688
     26 C          67.1686   93.1164   12.2744 C.3     1  UNL1        0.0086
     27 C          65.5340   92.6619   10.3069 C.3     1  UNL1        0.0122
     28 C          67.7186   94.0069    9.8965 C.2     1  UNL1        0.2184
     29 N          67.2736   95.3047    9.2901 N.am    1  UNL1       -0.3288
     30 O          69.0751   93.4542    9.5734 O.2     1  UNL1       -0.2754
     31 H          66.3833   95.6674    9.5022 H       1  UNL1        0.1449
     32 H          67.8719   95.7937    8.6801 H       1  UNL1        0.1449
@<TRIPOS>BOND
     1    13    14    1
     2    14    15    1
     3    14    16    1
     4    14    12    1
     5    12     8    1
     6     8     9    2
     7     8    10   am
     8     1    10    1
     9     1     2    1
    10     2     3    1
    11     3     4    1
    12     4     5   am
    13     5     6    2
    14     5    17    1
    15    18    17    1
    16    18    19    1
    17    19    20    1
    18    20    21    1
    19    21    22    1
    20    22    23    1
    21    23    24    1
    22    24    25    1
    23    25    28    1
    24    28    29   am
    25    28    30    2
    26    25    26    1
    27    25    27    1
    28     4     7    1
    29     7     1    1
    30    23    18    1
    31    27    19    1
    32    26    21    1
    33    10    11    1
    34    29    31    1
    35    29    32    1
@<TRIPOS>MOLECULE
*****
 32 35 0 0 0
SMALL
GASTEIGER

@<TRIPOS>ATOM
      1 C          64.6497   89.4943   14.1291 C.3     1  UNL1        0.0964
      2 C          63.8297   89.1140   12.9320 C.3     1  UNL1        0.0430
      3 C          63.3212   87.7185   13.1428 C.3     1  UNL1        0.0985
      4 N          63.8269   87.2365   14.4702 N.am    1  UNL1       -0.2443
      5 C          63.5587   85.8929   15.0808 C.2     1  UNL1        0.4048
      6 O          64.1347   85.5504   16.4227 O.2     1  UNL1       -0.2262
      7 C          64.6480   88.3339   15.0797 C.3     1  UNL1        0.1163
      8 C          64.8453   91.7660   15.3744 C.2     1  UNL1        0.4014
      9 O          63.6429   91.4167   16.2004 O.2     1  UNL1       -0.2264
     10 N          65.3486   90.8047   14.3388 N.am    1  UNL1       -0.2705
     11 H          66.1378   91.0339   13.7966 H       1  UNL1        0.1527
     12 O          65.5442   93.0765   15.5841 O.3     1  UNL1       -0.4419
     13 C          67.3160   92.4266   16.5529 C.3     1  UNL1        0.0437
     14 C          67.0125   93.1969   15.3021 C.3     1  UNL1        0.1378
     15 C          66.7091   93.9673   14.0513 C.3     1  UNL1        0.0437
     16 C          68.4808   93.3174   15.0200 C.3     1  UNL1        0.0437
     17 O          62.7145   84.8918   14.3494 O.3     1  UNL1       -0.4383
     18 C          63.1776   84.3381   13.0344 C.3     1  UNL1        0.1702
     19 C          62.6220   84.8849   11.7529 C.3     1  UNL1        0.0407
     20 C          63.6407   83.7845   11.7195 C.3     1  UNL1        0.0036
     21 C          64.1038   83.2309   10.4046 C.3     1  UNL1        0.0007
     22 C          64.6595   82.6841   11.6861 C.3     1  UNL1        0.0036
     23 C          64.1964   83.2377   13.0010 C.3     1  UNL1        0.0407
     24 C          63.4384   83.9271    9.8770 C.3     1  UNL1        0.0122
     25 C          62.5294   84.8782    9.1565 C.3     1  UNL1        0.0688
     26 C          63.5482   83.7778    9.1231 C.3     1  UNL1        0.0086
     27 C          62.0663   85.4318   10.4714 C.3     1  UNL1        0.0122
     28 C          61.9738   85.4250    7.8750 C.2     1  UNL1        0.2184
     29 N          62.4392   84.8736    6.5600 N.am    1  UNL1       -0.3288
     30 O          60.9526   86.5232    7.9085 O.2     1  UNL1       -0.2754
     31 H          63.1094   84.1528    6.5380 H       1  UNL1        0.1449
     32 H          62.0745   85.2325    5.7189 H       1  UNL1        0.1449
@<TRIPOS>BOND
     1    13    14    1
     2    14    15    1
     3    14    16    1
     4    14    12    1
     5    12     8    1
     6     8     9    2
     7     8    10   am
     8     1    10    1
     9     1     2    1
    10     2     3    1
    11     3     4    1
    12     4     5   am
    13     5     6    2
    14     5    17    1
    15    18    17    1
    16    18    19    1
    17    19    20    1
    18    20    21    1
    19    21    22    1
    20    22    23    1
    21    23    24    1
    22    24    25    1
    23    25    28    1
    24    28    29   am
    25    28    30    2
    26    25    26    1
    27    25    27    1
    28     4     7    1
    29     7     1    1
    30    23    18    1
    31    27    19    1
    32    26    21    1
    33    10    11    1
    34    29    31    1
    35    29    32    1
@<TRIPOS>MOLECULE
*****
 32 35 0 0 0
SMALL
GASTEIGER

@<TRIPOS>ATOM
      1 C          64.2140   92.2305   10.7985 C.3     1  UNL1        0.0964
      2 C          63.2646   91.6914    9.7698 C.3     1  UNL1        0.0430
      3 C          62.6564   90.4330   10.3147 C.3     1  UNL1        0.0985
      4 N          63.2299   90.1945   11.6800 N.am    1  UNL1       -0.2443
      5 C          62.8988   89.0466   12.5871 C.2     1  UNL1        0.4048
      6 O          63.5555   88.9396   13.9315 O.2     1  UNL1       -0.2262
      7 C          64.1925   91.3054   11.9790 C.3     1  UNL1        0.1163
      8 C          66.4821   93.4656   11.0810 C.2     1  UNL1        0.4014
      9 O          67.0987   92.2097   11.6219 O.2     1  UNL1       -0.2264
     10 N          65.0398   93.4759   10.6693 N.am    1  UNL1       -0.2705
     11 H          64.6351   94.3002   10.3142 H       1  UNL1        0.1527
     12 O          67.3079   94.7111   10.9518 O.3     1  UNL1       -0.4419
     13 C          66.4398   96.6282   10.6846 C.3     1  UNL1        0.0437
     14 C          67.1029   95.6291    9.7833 C.3     1  UNL1        0.1378
     15 C          67.7660   94.6300    8.8821 C.3     1  UNL1        0.0437
     16 C          66.8979   96.5470    8.6149 C.3     1  UNL1        0.0437
     17 O          61.9112   88.0058   12.1499 O.3     1  UNL1       -0.4383
     18 C          62.3936   86.7257   11.5344 C.3     1  UNL1        0.1702
     19 C          62.1538   86.4566   10.0783 C.3     1  UNL1        0.0407
     20 C          62.8759   85.4457   10.9189 C.3     1  UNL1        0.0036
     21 C          63.3582   84.1657   10.3034 C.3     1  UNL1        0.0007
     22 C          63.5980   84.4348   11.7595 C.3     1  UNL1        0.0036
     23 C          63.1157   85.7149   12.3749 C.3     1  UNL1        0.0407
     24 C          62.9517   84.4792    9.3327 C.3     1  UNL1        0.0122
     25 C          62.3964   84.9075    8.0068 C.3     1  UNL1        0.0688
     26 C          63.1185   83.8966    8.8473 C.3     1  UNL1        0.0086
     27 C          61.9140   86.1875    8.6223 C.3     1  UNL1        0.0122
     28 C          62.1566   84.6384    6.5507 C.2     1  UNL1        0.2184
     29 N          63.2947   84.7142    5.5767 N.am    1  UNL1       -0.3288
     30 O          60.7787   84.2935    6.0687 O.2     1  UNL1       -0.2754
     31 H          64.1991   84.9406    5.8930 H       1  UNL1        0.1449
     32 H          63.1373   84.5376    4.6210 H       1  UNL1        0.1449
@<TRIPOS>BOND
     1    13    14    1
     2    14    15    1
     3    14    16    1
     4    14    12    1
     5    12     8    1
     6     8     9    2
     7     8    10   am
     8     1    10    1
     9     1     2    1
    10     2     3    1
    11     3     4    1
    12     4     5   am
    13     5     6    2
    14     5    17    1
    15    18    17    1
    16    18    19    1
    17    19    20    1
    18    20    21    1
    19    21    22    1
    20    22    23    1
    21    23    24    1
    22    24    25    1
    23    25    28    1
    24    28    29   am
    25    28    30    2
    26    25    26    1
    27    25    27    1
    28     4     7    1
    29     7     1    1
    30    23    18    1
    31    27    19    1
    32    26    21    1
    33    10    11    1
    34    29    31    1
    35    29    32    1
@<TRIPOS>MOLECULE
*****
 32 35 0 0 0
SMALL
GASTEIGER

@<TRIPOS>ATOM
      1 C          64.7399   92.5319   10.8549 C.3     1  UNL1        0.0964
      2 C          63.4924   91.9823   10.2288 C.3     1  UNL1        0.0430
      3 C          62.9782   90.8818   11.1089 C.3     1  UNL1        0.0985
      4 N          63.9079   90.7513   12.2788 N.am    1  UNL1       -0.2443
      5 C          63.7726   89.7727   13.4076 C.2     1  UNL1        0.4048
      6 O          64.7852   89.7594   14.5142 O.2     1  UNL1       -0.2262
      7 C          64.9967   91.7711   12.1218 C.3     1  UNL1        0.1163
      8 C          67.0780   93.5295   10.3180 C.2     1  UNL1        0.4014
      9 O          67.7307   92.2976   10.8716 O.2     1  UNL1       -0.2264
     10 N          65.5826   93.6466   10.3097 N.am    1  UNL1       -0.2705
     11 H          65.1542   94.4551    9.9463 H       1  UNL1        0.1527
     12 O          67.9207   94.6441    9.7728 O.3     1  UNL1       -0.4419
     13 C          67.2413   96.6042   10.2166 C.3     1  UNL1        0.0437
     14 C          67.2833   95.7496    8.9844 C.3     1  UNL1        0.1378
     15 C          67.3253   94.8952    7.7523 C.3     1  UNL1        0.0437
     16 C          66.6459   96.8551    8.1960 C.3     1  UNL1        0.0437
     17 O          62.6246   88.8075   13.4299 O.3     1  UNL1       -0.4383
     18 C          62.4755   87.7940   12.3341 C.3     1  UNL1        0.1702
     19 C          61.5474   88.0613   11.1864 C.3     1  UNL1        0.0407
     20 C          62.3264   86.7806   11.2384 C.3     1  UNL1        0.0036
     21 C          62.1773   85.7671   10.1426 C.3     1  UNL1        0.0007
     22 C          63.1055   85.4998   11.2903 C.3     1  UNL1        0.0036
     23 C          63.2546   86.5132   12.3860 C.3     1  UNL1        0.0407
     24 C          61.4558   86.4214    9.6356 C.3     1  UNL1        0.0122
     25 C          60.4702   87.3152    8.9431 C.3     1  UNL1        0.0688
     26 C          61.2492   86.0344    8.9950 C.3     1  UNL1        0.0086
     27 C          60.6193   88.3286   10.0388 C.3     1  UNL1        0.0122
     28 C          59.5420   87.5825    7.7954 C.2     1  UNL1        0.2184
     29 N          58.5894   86.5181    7.3376 N.am    1  UNL1       -0.3288
     30 O          59.5665   88.9142    7.1055 O.2     1  UNL1       -0.2754
     31 H          58.5734   85.6441    7.7904 H       1  UNL1        0.1449
     32 H          57.9803   86.6936    6.5844 H       1  UNL1        0.1449
@<TRIPOS>BOND
     1    13    14    1
     2    14    15    1
     3    14    16    1
     4    14    12    1
     5    12     8    1
     6     8     9    2
     7     8    10   am
     8     1    10    1
     9     1     2    1
    10     2     3    1
    11     3     4    1
    12     4     5   am
    13     5     6    2
    14     5    17    1
    15    18    17    1
    16    18    19    1
    17    19    20    1
    18    20    21    1
    19    21    22    1
    20    22    23    1
    21    23    24    1
    22    24    25    1
    23    25    28    1
    24    28    29   am
    25    28    30    2
    26    25    26    1
    27    25    27    1
    28     4     7    1
    29     7     1    1
    30    23    18    1
    31    27    19    1
    32    26    21    1
    33    10    11    1
    34    29    31    1
    35    29    32    1
