@<TRIPOS>MOLECULE
*****
 28 32 0 0 0
SMALL
GASTEIGER

@<TRIPOS>ATOM
      1 C          65.7425   96.8555    1.8954 C.3     1  UNL1        0.0902
      2 N          64.5303   96.2951    1.2124 N.3     1  UNL1       -0.2612
      3 C          64.7945   95.4896   -0.0251 C.3     1  UNL1        0.1010
      4 C          63.8079   94.8044   -0.9235 C.ar    1  UNL1        0.0109
      5 C          64.4945   94.1038   -2.0582 C.ar    1  UNL1        0.0099
      6 C          63.6866   93.3541   -3.0756 C.ar    1  UNL1        0.0575
      7 CL         64.3732   92.6534   -4.2104 Cl      1  UNL1       -0.0823
      8 C          62.1920   93.3051   -2.9583 C.ar    1  UNL1        0.0129
      9 C          61.5053   94.0057   -1.8236 C.ar    1  UNL1        0.0182
     10 C          62.3133   94.7554   -0.8062 C.ar    1  UNL1        0.0636
     11 N          61.4362   95.3795    0.2385 N.ar    1  UNL1       -0.2799
     12 C          61.8370   96.2068    1.4238 C.ar    1  UNL1        0.1632
     13 N          60.5900   96.5941    2.1618 N.ar    1  UNL1       -0.1319
     14 N          59.4184   96.0063    1.4326 N.ar    1  UNL1       -0.1333
     15 C          59.9413   95.2556    0.2439 C.ar    1  UNL1        0.1465
     16 C          63.2141   96.6142    1.8572 C.3     1  UNL1        0.1396
     17 C          59.1146   94.5117   -0.7626 C.3     1  UNL1        0.0625
     18 C          58.7051   93.0935   -0.4959 C.3     1  UNL1        0.0291
     19 C          57.8785   92.3496   -1.5023 C.3     1  UNL1        0.0926
     20 N          57.4612   93.0238   -2.7756 N.pl3   1  UNL1       -0.2932
     21 C          57.8706   94.4419   -3.0424 C.3     1  UNL1        0.0926
     22 C          58.6973   95.1859   -2.0360 C.3     1  UNL1        0.0291
     23 C          56.6345   92.2798   -3.7822 C.ar    1  UNL1        0.1317
     24 C          55.9849   90.9810   -3.4064 C.ar    1  UNL1        0.0343
     25 C          55.1582   90.2371   -4.4130 C.ar    1  UNL1        0.0045
     26 C          54.9810   90.7920   -5.7952 C.ar    1  UNL1        0.0208
     27 C          55.6305   92.0908   -6.1710 C.ar    1  UNL1        0.1003
     28 N          56.4573   92.8347   -5.1644 N.ar    1  UNL1       -0.2292
@<TRIPOS>BOND
     1     1     2    1
     2     2     3    1
     3     3     4    1
     4     4     5   ar
     5     5     6   ar
     6     6     7    1
     7     6     8   ar
     8     8     9   ar
     9     9    10   ar
    10    10    11    1
    11    11    12   ar
    12    12    13   ar
    13    13    14   ar
    14    14    15   ar
    15    15    17    1
    16    17    18    1
    17    18    19    1
    18    19    20    1
    19    20    23    1
    20    23    24   ar
    21    24    25   ar
    22    25    26   ar
    23    26    27   ar
    24    27    28   ar
    25    20    21    1
    26    21    22    1
    27    12    16    1
    28    16     2    1
    29    10     4   ar
    30    15    11   ar
    31    22    17    1
    32    28    23   ar
@<TRIPOS>MOLECULE
*****
 28 32 0 0 0
SMALL
GASTEIGER

@<TRIPOS>ATOM
      1 C          58.9919   91.8797    4.4277 C.3     1  UNL1        0.0902
      2 N          59.8115   92.3609    3.2673 N.3     1  UNL1       -0.2612
      3 C          59.0354   92.8563    2.0831 C.3     1  UNL1        0.1010
      4 C          59.5550   93.3962    0.7836 C.ar    1  UNL1        0.0109
      5 C          58.4349   93.7824   -0.1363 C.ar    1  UNL1        0.0099
      6 C          58.7390   94.3465   -1.4925 C.ar    1  UNL1        0.0575
      7 CL         57.6190   94.7328   -2.4125 Cl      1  UNL1       -0.0823
      8 C          60.1631   94.5244   -1.9287 C.ar    1  UNL1        0.0129
      9 C          61.2831   94.1382   -1.0088 C.ar    1  UNL1        0.0182
     10 C          60.9791   93.5740    0.3474 C.ar    1  UNL1        0.0636
     11 N          62.2353   93.2559    1.1029 N.ar    1  UNL1       -0.2799
     12 C          62.3778   92.6814    2.4811 C.ar    1  UNL1        0.1632
     13 N          63.8418   92.5527    2.7806 N.ar    1  UNL1       -0.1319
     14 N          64.6043   93.0476    1.5875 N.ar    1  UNL1       -0.1333
     15 C          63.6114   93.4823    0.5505 C.ar    1  UNL1        0.1465
     16 C          61.2991   92.2831    3.4444 C.3     1  UNL1        0.1396
     17 C          63.9374   94.0445   -0.8013 C.3     1  UNL1        0.0625
     18 C          64.3810   95.4714   -0.9332 C.3     1  UNL1        0.0291
     19 C          64.7070   96.0336   -2.2850 C.3     1  UNL1        0.0926
     20 N          64.5894   95.1691   -3.5051 N.pl3   1  UNL1       -0.2932
     21 C          64.1458   93.7422   -3.3733 C.3     1  UNL1        0.0926
     22 C          63.8198   93.1799   -2.0215 C.3     1  UNL1        0.0291
     23 C          64.9154   95.7313   -4.8570 C.ar    1  UNL1        0.1317
     24 C          66.2974   96.2386   -5.1449 C.ar    1  UNL1        0.0343
     25 C          66.6234   96.8008   -6.4969 C.ar    1  UNL1        0.0045
     26 C          65.5674   96.8558   -7.5608 C.ar    1  UNL1        0.0208
     27 C          64.1854   96.3486   -7.2728 C.ar    1  UNL1        0.1003
     28 N          63.8594   95.7863   -5.9209 N.ar    1  UNL1       -0.2292
@<TRIPOS>BOND
     1     1     2    1
     2     2     3    1
     3     3     4    1
     4     4     5   ar
     5     5     6   ar
     6     6     7    1
     7     6     8   ar
     8     8     9   ar
     9     9    10   ar
    10    10    11    1
    11    11    12   ar
    12    12    13   ar
    13    13    14   ar
    14    14    15   ar
    15    15    17    1
    16    17    18    1
    17    18    19    1
    18    19    20    1
    19    20    23    1
    20    23    24   ar
    21    24    25   ar
    22    25    26   ar
    23    26    27   ar
    24    27    28   ar
    25    20    21    1
    26    21    22    1
    27    12    16    1
    28    16     2    1
    29    10     4   ar
    30    15    11   ar
    31    22    17    1
    32    28    23   ar
@<TRIPOS>MOLECULE
*****
 28 32 0 0 0
SMALL
GASTEIGER

@<TRIPOS>ATOM
      1 C          65.0367   85.6957   15.6530 C.3     1  UNL1        0.0902
      2 N          64.2820   86.1781   14.4498 N.3     1  UNL1       -0.2612
      3 C          64.3763   87.6485   14.1687 C.3     1  UNL1        0.1010
      4 C          63.7448   88.4304   13.0552 C.ar    1  UNL1        0.0109
      5 C          64.0952   89.8863   13.1405 C.ar    1  UNL1        0.0099
      6 C          63.5638   90.8467   12.1182 C.ar    1  UNL1        0.0575
      7 CL         63.9142   92.3028   12.2034 Cl      1  UNL1       -0.0823
      8 C          62.6818   90.3512   11.0107 C.ar    1  UNL1        0.0129
      9 C          62.3314   88.8952   10.9254 C.ar    1  UNL1        0.0182
     10 C          62.8628   87.9348   11.9477 C.ar    1  UNL1        0.0636
     11 N          62.3947   86.5351   11.6802 N.ar    1  UNL1       -0.2799
     12 C          62.6928   85.2851   12.4540 C.ar    1  UNL1        0.1632
     13 N          61.9893   84.1443   11.7808 N.ar    1  UNL1       -0.1319
     14 N          61.2564   84.6890   10.5908 N.ar    1  UNL1       -0.1333
     15 C          61.5069   86.1666   10.5286 C.ar    1  UNL1        0.1465
     16 C          63.5327   85.1263   13.6866 C.3     1  UNL1        0.1396
     17 C          60.9649   87.1100    9.4961 C.3     1  UNL1        0.0625
     18 C          60.3347   88.4037    9.9194 C.3     1  UNL1        0.0291
     19 C          59.7927   89.3472    8.8870 C.3     1  UNL1        0.0926
     20 N          59.8808   88.9970    7.4312 N.pl3   1  UNL1       -0.2932
     21 C          60.5110   87.7034    7.0077 C.3     1  UNL1        0.0926
     22 C          61.0531   86.7599    8.0402 C.3     1  UNL1        0.0291
     23 C          59.3387   89.9405    6.3986 C.ar    1  UNL1        0.1317
     24 C          60.2790   90.7321    5.5388 C.ar    1  UNL1        0.0343
     25 C          59.7370   91.6756    4.5062 C.ar    1  UNL1        0.0045
     26 C          58.2547   91.8275    4.3336 C.ar    1  UNL1        0.0208
     27 C          57.3144   91.0359    5.1935 C.ar    1  UNL1        0.1003
     28 N          57.8565   90.0924    6.2260 N.ar    1  UNL1       -0.2292
@<TRIPOS>BOND
     1     1     2    1
     2     2     3    1
     3     3     4    1
     4     4     5   ar
     5     5     6   ar
     6     6     7    1
     7     6     8   ar
     8     8     9   ar
     9     9    10   ar
    10    10    11    1
    11    11    12   ar
    12    12    13   ar
    13    13    14   ar
    14    14    15   ar
    15    15    17    1
    16    17    18    1
    17    18    19    1
    18    19    20    1
    19    20    23    1
    20    23    24   ar
    21    24    25   ar
    22    25    26   ar
    23    26    27   ar
    24    27    28   ar
    25    20    21    1
    26    21    22    1
    27    12    16    1
    28    16     2    1
    29    10     4   ar
    30    15    11   ar
    31    22    17    1
    32    28    23   ar
