@<TRIPOS>MOLECULE
*****
 33 35 0 0 0
SMALL
GASTEIGER

@<TRIPOS>ATOM
      1 C          62.2090   88.4956   11.1339 C.3     1  UNL1        0.0638
      2 C          61.8380   89.7509   10.4015 C.3     1  UNL1        0.0220
      3 C          60.8039   89.7081    9.3158 C.3     1  UNL1        0.0680
      4 C          60.1408   88.4099    8.9624 C.3     1  UNL1        0.2640
      5 F          59.2402   87.4294    8.2714 F       1  UNL1       -0.2043
      6 F          59.4571   89.3247    7.9900 F       1  UNL1       -0.2043
      7 C          60.5118   87.1545    9.6948 C.3     1  UNL1        0.0680
      8 C          61.5459   87.1974   10.7806 C.3     1  UNL1        0.0220
      9 N          64.9107   91.4371   13.2071 N.3     1  UNL1       -0.1566
     10 C          64.4916   90.1797   13.9094 C.3     1  UNL1        0.1128
     11 C          63.5910   89.1992   13.2183 C.3     1  UNL1        0.0915
     12 N          63.1095   89.4761   11.8250 N.3     1  UNL1       -0.2711
     13 C          63.5286   90.7335   11.1227 C.3     1  UNL1        0.0915
     14 C          64.4292   91.7140   11.8137 C.3     1  UNL1        0.1128
     15 S          65.8113   92.4176   13.8981 S.O2    1  UNL1        0.0439
     16 O          66.5787   92.6108   12.6239 O.2     1  UNL1       -0.1573
     17 O          65.0438   92.2245   15.1724 O.2     1  UNL1       -0.1573
     18 C          66.7118   93.3982   14.5892 C.3     1  UNL1        0.1691
     19 C          68.5949   92.3104   16.0107 C.3     1  UNL1        0.0019
     20 C          67.2996   93.0623   15.9277 C.3     1  UNL1        0.0270
     21 C          62.8927   87.5807   12.1063 C.3     1  UNL1        0.1042
     22 N          62.6118   86.1076   12.0748 N.am    1  UNL1       -0.2994
     23 C          63.2599   85.1989   13.0770 C.2     1  UNL1        0.2503
     24 O          64.1888   85.7634   14.1106 O.2     1  UNL1       -0.2700
     25 H          62.0021   85.7371   11.3964 H       1  UNL1        0.1498
     26 C          62.9790   83.7258   13.0455 C.ar    1  UNL1        0.1081
     27 C          62.4134   83.0440   14.2560 C.ar    1  UNL1        0.1466
     28 F          62.1287   83.8355   15.4981 F       1  UNL1       -0.2039
     29 C          62.1324   81.5710   14.2245 C.ar    1  UNL1        0.0299
     30 C          62.4172   80.7796   12.9825 C.ar    1  UNL1        0.0046
     31 C          62.9827   81.4612   11.7720 C.ar    1  UNL1        0.0299
     32 C          63.2637   82.9344   11.8035 C.ar    1  UNL1        0.1466
     33 F          63.8292   83.6161   10.5930 F       1  UNL1       -0.2039
@<TRIPOS>BOND
     1    19    20    1
     2    20    18    1
     3    18    15    1
     4    15    16    2
     5    15    17    2
     6    15     9    1
     7     9    10    1
     8    10    11    1
     9    11    12    1
    10    12     1    1
    11     1    21    1
    12    21    22    1
    13    22    23   am
    14    23    24    2
    15    23    26    1
    16    26    27   ar
    17    27    28    1
    18    27    29   ar
    19    29    30   ar
    20    30    31   ar
    21    31    32   ar
    22    32    33    1
    23     1     2    1
    24     2     3    1
    25     3     4    1
    26     4     5    1
    27     4     6    1
    28     4     7    1
    29     7     8    1
    30    12    13    1
    31    13    14    1
    32    14     9    1
    33     8     1    1
    34    32    26   ar
    35    22    25    1
@<TRIPOS>MOLECULE
*****
 33 35 0 0 0
SMALL
GASTEIGER

@<TRIPOS>ATOM
      1 C          62.1562   88.4873   11.1257 C.3     1  UNL1        0.0638
      2 C          61.7954   89.7385   10.3812 C.3     1  UNL1        0.0220
      3 C          60.7669   89.6920    9.2903 C.3     1  UNL1        0.0680
      4 C          60.0992   88.3943    8.9439 C.3     1  UNL1        0.2640
      5 F          59.1975   87.4127    8.2559 F       1  UNL1       -0.2043
      6 F          59.4252   89.3046    7.9605 F       1  UNL1       -0.2043
      7 C          60.4600   87.1430    9.6883 C.3     1  UNL1        0.0680
      8 C          61.4885   87.1896   10.7792 C.3     1  UNL1        0.0220
      9 N          64.8614   91.4321   13.1896 N.3     1  UNL1       -0.1566
     10 C          64.4116   90.1952   13.9089 C.3     1  UNL1        0.1128
     11 C          63.5098   89.2135   13.2209 C.3     1  UNL1        0.0915
     12 N          63.0579   89.4689   11.8136 N.3     1  UNL1       -0.2711
     13 C          63.5078   90.7059   11.0943 C.3     1  UNL1        0.0915
     14 C          64.4095   91.6875   11.7823 C.3     1  UNL1        0.1128
     15 S          65.7632   92.4137   13.8775 S.O2    1  UNL1        0.0439
     16 O          66.5112   92.6256   12.5947 O.2     1  UNL1       -0.1573
     17 O          65.0151   92.2019   15.1603 O.2     1  UNL1       -0.1573
     18 C          66.6649   93.3953   14.5655 C.3     1  UNL1        0.1691
     19 C          68.5251   92.3560   16.0520 C.3     1  UNL1        0.0019
     20 C          67.2182   93.0811   15.9238 C.3     1  UNL1        0.0270
     21 C          62.8302   87.5770   12.1091 C.3     1  UNL1        0.1042
     22 N          62.5998   86.0963   12.0403 N.am    1  UNL1       -0.2994
     23 C          63.2195   85.1926   13.0646 C.2     1  UNL1        0.2503
     24 O          64.0695   85.7694   14.1576 O.2     1  UNL1       -0.2700
     25 H          62.0419   85.7177   11.3229 H       1  UNL1        0.1498
     26 C          62.9892   83.7119   12.9959 C.ar    1  UNL1        0.1081
     27 C          63.3633   82.9514   11.7584 C.ar    1  UNL1        0.1466
     28 F          63.9679   83.6714   10.5895 F       1  UNL1       -0.2039
     29 C          63.1330   81.4708   11.6895 C.ar    1  UNL1        0.0299
     30 C          62.5285   80.7508   12.8584 C.ar    1  UNL1        0.0046
     31 C          62.1543   81.5113   14.0959 C.ar    1  UNL1        0.0299
     32 C          62.3847   82.9919   14.1647 C.ar    1  UNL1        0.1466
     33 F          62.0105   83.7525   15.4022 F       1  UNL1       -0.2039
@<TRIPOS>BOND
     1    19    20    1
     2    20    18    1
     3    18    15    1
     4    15    16    2
     5    15    17    2
     6    15     9    1
     7     9    10    1
     8    10    11    1
     9    11    12    1
    10    12     1    1
    11     1    21    1
    12    21    22    1
    13    22    23   am
    14    23    24    2
    15    23    26    1
    16    26    27   ar
    17    27    28    1
    18    27    29   ar
    19    29    30   ar
    20    30    31   ar
    21    31    32   ar
    22    32    33    1
    23     1     2    1
    24     2     3    1
    25     3     4    1
    26     4     5    1
    27     4     6    1
    28     4     7    1
    29     7     8    1
    30    12    13    1
    31    13    14    1
    32    14     9    1
    33     8     1    1
    34    32    26   ar
    35    22    25    1
@<TRIPOS>MOLECULE
*****
 33 35 0 0 0
SMALL
GASTEIGER

@<TRIPOS>ATOM
      1 C          61.5634   88.2222   10.3090 C.3     1  UNL1        0.0638
      2 C          61.1225   89.3165    9.3826 C.3     1  UNL1        0.0220
      3 C          60.0365   89.0586    8.3805 C.3     1  UNL1        0.0680
      4 C          59.3915   87.7065    8.3047 C.3     1  UNL1        0.2640
      5 F          58.4839   86.6010    7.8528 F       1  UNL1       -0.2043
      6 F          58.6353   88.4168    7.2214 F       1  UNL1       -0.2043
      7 C          59.8325   86.6122    9.2311 C.3     1  UNL1        0.0680
      8 C          60.9185   86.8701   10.2332 C.3     1  UNL1        0.0220
      9 N          64.2862   91.5386   11.6649 N.3     1  UNL1       -0.1566
     10 C          63.9512   90.4139   12.5991 C.3     1  UNL1        0.1128
     11 C          63.0436   89.3085   12.1472 C.3     1  UNL1        0.0915
     12 N          62.4710   89.3277   10.7609 N.3     1  UNL1       -0.2711
     13 C          62.8060   90.4524    9.8267 C.3     1  UNL1        0.0915
     14 C          63.7135   91.5578   10.2787 C.3     1  UNL1        0.1128
     15 S          65.1938   92.6440   12.1169 S.O2    1  UNL1        0.0439
     16 O          64.9185   92.2852   13.5471 O.2     1  UNL1       -0.1573
     17 O          65.4690   93.0028   10.6866 O.2     1  UNL1       -0.1573
     18 C          66.1013   93.7495   12.5688 C.3     1  UNL1        0.1691
     19 C          66.0966   96.2147   11.7489 C.3     1  UNL1        0.0019
     20 C          66.5538   94.7947   11.5928 C.3     1  UNL1        0.0270
     21 C          62.3196   87.5119   11.3923 C.3     1  UNL1        0.1042
     22 N          62.1930   86.0250   11.5442 N.am    1  UNL1       -0.2994
     23 C          62.9084   85.3214   12.6591 C.2     1  UNL1        0.2503
     24 O          63.7504   86.1047   13.6222 O.2     1  UNL1       -0.2700
     25 H          61.6404   85.5109   10.9121 H       1  UNL1        0.1498
     26 C          62.7818   83.8344   12.8110 C.ar    1  UNL1        0.1081
     27 C          62.2780   83.2522   14.0983 C.ar    1  UNL1        0.1466
     28 F          61.9007   84.1570   15.2338 F       1  UNL1       -0.2039
     29 C          62.1514   81.7653   14.2502 C.ar    1  UNL1        0.0299
     30 C          62.5286   80.8607   13.1148 C.ar    1  UNL1        0.0046
     31 C          63.0324   81.4428   11.8274 C.ar    1  UNL1        0.0299
     32 C          63.1591   82.9298   11.6756 C.ar    1  UNL1        0.1466
     33 F          63.6629   83.5120   10.3883 F       1  UNL1       -0.2039
@<TRIPOS>BOND
     1    19    20    1
     2    20    18    1
     3    18    15    1
     4    15    16    2
     5    15    17    2
     6    15     9    1
     7     9    10    1
     8    10    11    1
     9    11    12    1
    10    12     1    1
    11     1    21    1
    12    21    22    1
    13    22    23   am
    14    23    24    2
    15    23    26    1
    16    26    27   ar
    17    27    28    1
    18    27    29   ar
    19    29    30   ar
    20    30    31   ar
    21    31    32   ar
    22    32    33    1
    23     1     2    1
    24     2     3    1
    25     3     4    1
    26     4     5    1
    27     4     6    1
    28     4     7    1
    29     7     8    1
    30    12    13    1
    31    13    14    1
    32    14     9    1
    33     8     1    1
    34    32    26   ar
    35    22    25    1
@<TRIPOS>MOLECULE
*****
 33 35 0 0 0
SMALL
GASTEIGER

@<TRIPOS>ATOM
      1 C          61.3359   87.6309   10.0448 C.3     1  UNL1        0.0638
      2 C          60.8540   86.6387    9.0283 C.3     1  UNL1        0.0220
      3 C          60.0538   87.1030    7.8475 C.3     1  UNL1        0.0680
      4 C          59.7356   88.5596    7.6833 C.3     1  UNL1        0.2640
      5 F          59.1834   89.8241    7.0951 F       1  UNL1       -0.2043
      6 F          59.0619   88.0066    6.4625 F       1  UNL1       -0.2043
      7 C          60.2175   89.5519    8.6997 C.3     1  UNL1        0.0680
      8 C          61.0176   89.0875    9.8805 C.3     1  UNL1        0.0220
      9 N          62.9926   83.8373   11.8094 N.3     1  UNL1       -0.1566
     10 C          63.1312   84.1039   10.3399 C.3     1  UNL1        0.1128
     11 C          62.5790   85.3685    9.7516 C.3     1  UNL1        0.0915
     12 N          61.8881   86.3664   10.6330 N.3     1  UNL1       -0.2711
     13 C          61.7495   86.0998   12.1025 C.3     1  UNL1        0.0915
     14 C          62.3017   84.8353   12.6908 C.3     1  UNL1        0.1128
     15 S          63.5448   82.5728   12.3977 S.O2    1  UNL1        0.0439
     16 O          63.3302   81.8706   11.0896 O.2     1  UNL1       -0.1573
     17 O          63.7593   83.2750   13.7057 O.2     1  UNL1       -0.1573
     18 C          64.0970   81.3083   12.9859 C.3     1  UNL1        0.1691
     19 C          61.7209   80.6414   13.7980 C.3     1  UNL1        0.0019
     20 C          63.1963   80.3769   13.7416 C.3     1  UNL1        0.0270
     21 C          62.0096   88.1840   11.2655 C.3     1  UNL1        0.1042
     22 N          62.9937   89.3085   11.1345 N.am    1  UNL1       -0.2994
     23 C          63.3237   90.1588   12.3253 C.2     1  UNL1        0.2503
     24 O          62.6697   89.8847   13.6471 O.2     1  UNL1       -0.2700
     25 H          63.4229   89.4884   10.2670 H       1  UNL1        0.1498
     26 C          64.3078   91.2833   12.1943 C.ar    1  UNL1        0.1081
     27 C          65.2669   91.5744   13.3102 C.ar    1  UNL1        0.1466
     28 F          65.2420   90.7410   14.5572 F       1  UNL1       -0.2039
     29 C          66.2510   92.6989   13.1793 C.ar    1  UNL1        0.0299
     30 C          66.2758   93.5323   11.9324 C.ar    1  UNL1        0.0046
     31 C          65.3167   93.2412   10.8164 C.ar    1  UNL1        0.0299
     32 C          64.3326   92.1167   10.9474 C.ar    1  UNL1        0.1466
     33 F          63.3735   91.8256    9.8315 F       1  UNL1       -0.2039
@<TRIPOS>BOND
     1    19    20    1
     2    20    18    1
     3    18    15    1
     4    15    16    2
     5    15    17    2
     6    15     9    1
     7     9    10    1
     8    10    11    1
     9    11    12    1
    10    12     1    1
    11     1    21    1
    12    21    22    1
    13    22    23   am
    14    23    24    2
    15    23    26    1
    16    26    27   ar
    17    27    28    1
    18    27    29   ar
    19    29    30   ar
    20    30    31   ar
    21    31    32   ar
    22    32    33    1
    23     1     2    1
    24     2     3    1
    25     3     4    1
    26     4     5    1
    27     4     6    1
    28     4     7    1
    29     7     8    1
    30    12    13    1
    31    13    14    1
    32    14     9    1
    33     8     1    1
    34    32    26   ar
    35    22    25    1
@<TRIPOS>MOLECULE
*****
 33 35 0 0 0
SMALL
GASTEIGER

@<TRIPOS>ATOM
      1 C          61.3443   87.6158   10.0381 C.3     1  UNL1        0.0638
      2 C          60.8672   86.6236    9.0193 C.3     1  UNL1        0.0220
      3 C          60.0673   87.0872    7.8381 C.3     1  UNL1        0.0680
      4 C          59.7444   88.5430    7.6757 C.3     1  UNL1        0.2640
      5 F          59.1888   89.8066    7.0887 F       1  UNL1       -0.2043
      6 F          59.0743   87.9896    6.4531 F       1  UNL1       -0.2043
      7 C          60.2215   89.5352    8.6945 C.3     1  UNL1        0.0680
      8 C          61.0214   89.0715    9.8757 C.3     1  UNL1        0.0220
      9 N          63.0110   83.8249   11.7990 N.3     1  UNL1       -0.1566
     10 C          62.3109   84.8166   12.6801 C.3     1  UNL1        0.1128
     11 C          61.7553   86.0802   12.0931 C.3     1  UNL1        0.0915
     12 N          61.8999   86.3521   10.6251 N.3     1  UNL1       -0.2711
     13 C          62.6000   85.3604    9.7440 C.3     1  UNL1        0.0915
     14 C          63.1556   84.0968   10.3310 C.3     1  UNL1        0.1128
     15 S          63.5666   82.5612   12.3860 S.O2    1  UNL1        0.0439
     16 O          63.7641   83.2582   13.6995 O.2     1  UNL1       -0.1573
     17 O          63.3690   81.8642   11.0726 O.2     1  UNL1       -0.1573
     18 C          64.1222   81.2976   12.9730 C.3     1  UNL1        0.1691
     19 C          61.7491   80.6057   13.7729 C.3     1  UNL1        0.0019
     20 C          63.2322   80.3812   13.7592 C.3     1  UNL1        0.0270
     21 C          62.0144   88.1691   11.2607 C.3     1  UNL1        0.1042
     22 N          63.0023   89.2905   11.1319 N.am    1  UNL1       -0.2994
     23 C          63.3190   90.1509   12.3190 C.2     1  UNL1        0.2503
     24 O          62.6480   89.8901   13.6349 O.2     1  UNL1       -0.2700
     25 H          63.4428   89.4617   10.2683 H       1  UNL1        0.1498
     26 C          64.3070   91.2723   12.1903 C.ar    1  UNL1        0.1081
     27 C          64.3298   92.1128   10.9481 C.ar    1  UNL1        0.1466
     28 F          63.3648   91.8318    9.8346 F       1  UNL1       -0.2039
     29 C          65.3177   93.2341   10.8192 C.ar    1  UNL1        0.0299
     30 C          66.2827   93.5150   11.9327 C.ar    1  UNL1        0.0046
     31 C          66.2599   92.6746   13.1749 C.ar    1  UNL1        0.0299
     32 C          65.2720   91.5532   13.3037 C.ar    1  UNL1        0.1466
     33 F          65.2491   90.7128   14.5459 F       1  UNL1       -0.2039
@<TRIPOS>BOND
     1    19    20    1
     2    20    18    1
     3    18    15    1
     4    15    16    2
     5    15    17    2
     6    15     9    1
     7     9    10    1
     8    10    11    1
     9    11    12    1
    10    12     1    1
    11     1    21    1
    12    21    22    1
    13    22    23   am
    14    23    24    2
    15    23    26    1
    16    26    27   ar
    17    27    28    1
    18    27    29   ar
    19    29    30   ar
    20    30    31   ar
    21    31    32   ar
    22    32    33    1
    23     1     2    1
    24     2     3    1
    25     3     4    1
    26     4     5    1
    27     4     6    1
    28     4     7    1
    29     7     8    1
    30    12    13    1
    31    13    14    1
    32    14     9    1
    33     8     1    1
    34    32    26   ar
    35    22    25    1
@<TRIPOS>MOLECULE
*****
 33 35 0 0 0
SMALL
GASTEIGER

@<TRIPOS>ATOM
      1 C          63.1936   87.3740   12.7190 C.3     1  UNL1        0.0638
      2 C          62.8178   85.9820   12.3054 C.3     1  UNL1        0.0220
      3 C          63.3281   84.8051   13.0829 C.3     1  UNL1        0.0680
      4 C          64.2142   85.0201   14.2739 C.3     1  UNL1        0.2640
      5 F          65.0734   84.7150   15.4650 F       1  UNL1       -0.2043
      6 F          64.1368   83.5222   14.2740 F       1  UNL1       -0.2043
      7 C          64.5900   86.4122   14.6875 C.3     1  UNL1        0.0680
      8 C          64.0797   87.5891   13.9100 C.3     1  UNL1        0.0220
      9 N          60.6160   88.2894    9.1457 N.3     1  UNL1       -0.1566
     10 C          60.5764   86.9259    9.7695 C.3     1  UNL1        0.1128
     11 C          61.4356   86.6207   10.9606 C.3     1  UNL1        0.0915
     12 N          62.3344   87.6791   11.5279 N.3     1  UNL1       -0.2711
     13 C          62.3740   89.0427   10.9041 C.3     1  UNL1        0.0915
     14 C          61.5148   89.3478    9.7131 C.3     1  UNL1        0.1128
     15 S          59.7568   88.5945    7.9547 S.O2    1  UNL1        0.0439
     16 O          60.1483   90.0399    8.0425 O.2     1  UNL1       -0.1573
     17 O          59.3653   87.1492    7.8668 O.2     1  UNL1       -0.1573
     18 C          58.8976   88.8997    6.7636 C.3     1  UNL1        0.1691
     19 C          58.1001   90.9005    5.3107 C.3     1  UNL1        0.0019
     20 C          59.2126   90.0809    5.8944 C.3     1  UNL1        0.0270
     21 C          63.2710   88.8720   12.7188 C.3     1  UNL1        0.1042
     22 N          64.2500   89.5725   13.6138 N.am    1  UNL1       -0.2994
     23 C          64.7274   90.9520   13.2688 C.2     1  UNL1        0.2503
     24 O          64.2257   91.6311   12.0290 O.2     1  UNL1       -0.2700
     25 H          64.5793   89.1268   14.4275 H       1  UNL1        0.1498
     26 C          65.7064   91.6525   14.1637 C.ar    1  UNL1        0.1081
     27 C          65.3602   91.9063   15.6010 C.ar    1  UNL1        0.1466
     28 F          64.0349   91.4596   16.1434 F       1  UNL1       -0.2039
     29 C          66.3392   92.6068   16.4959 C.ar    1  UNL1        0.0299
     30 C          67.6644   93.0534   15.9535 C.ar    1  UNL1        0.0046
     31 C          68.0107   92.7997   14.5163 C.ar    1  UNL1        0.0299
     32 C          67.0317   92.0992   13.6214 C.ar    1  UNL1        0.1466
     33 F          67.3779   91.8454   12.1841 F       1  UNL1       -0.2039
@<TRIPOS>BOND
     1    19    20    1
     2    20    18    1
     3    18    15    1
     4    15    16    2
     5    15    17    2
     6    15     9    1
     7     9    10    1
     8    10    11    1
     9    11    12    1
    10    12     1    1
    11     1    21    1
    12    21    22    1
    13    22    23   am
    14    23    24    2
    15    23    26    1
    16    26    27   ar
    17    27    28    1
    18    27    29   ar
    19    29    30   ar
    20    30    31   ar
    21    31    32   ar
    22    32    33    1
    23     1     2    1
    24     2     3    1
    25     3     4    1
    26     4     5    1
    27     4     6    1
    28     4     7    1
    29     7     8    1
    30    12    13    1
    31    13    14    1
    32    14     9    1
    33     8     1    1
    34    32    26   ar
    35    22    25    1
@<TRIPOS>MOLECULE
*****
 33 35 0 0 0
SMALL
GASTEIGER

@<TRIPOS>ATOM
      1 C          62.6930   85.5960   11.7900 C.3     1  UNL1        0.0638
      2 C          62.7246   84.5614   10.7045 C.3     1  UNL1        0.0220
      3 C          63.4721   83.2777   10.9134 C.3     1  UNL1        0.0680
      4 C          64.1878   83.0287   12.2079 C.3     1  UNL1        0.2640
      5 F          65.0142   82.3370   13.2512 F       1  UNL1       -0.2043
      6 F          64.5064   81.7538   11.4847 F       1  UNL1       -0.2043
      7 C          64.1561   84.0634   13.2934 C.3     1  UNL1        0.0680
      8 C          63.4087   85.3470   13.0845 C.3     1  UNL1        0.0220
      9 N          60.2138   87.6713    8.6600 N.3     1  UNL1       -0.1566
     10 C          61.3779   86.8185    8.2508 C.3     1  UNL1        0.1128
     11 C          62.2044   86.1268    9.2942 C.3     1  UNL1        0.0915
     12 N          61.8666   86.2878   10.7467 N.3     1  UNL1       -0.2711
     13 C          60.7024   87.1405   11.1559 C.3     1  UNL1        0.0915
     14 C          59.8760   87.8323   10.1126 C.3     1  UNL1        0.1128
     15 S          59.3874   88.3630    7.6167 S.O2    1  UNL1        0.0439
     16 O          60.1426   89.6355    7.8622 O.2     1  UNL1       -0.1573
     17 O          58.6321   87.0905    7.3712 O.2     1  UNL1       -0.1573
     18 C          58.5610   89.0548    6.5734 C.3     1  UNL1        0.1691
     19 C          58.1813   91.2082    5.1704 C.3     1  UNL1        0.0019
     20 C          59.1117   90.2477    5.8498 C.3     1  UNL1        0.0270
     21 C          62.3743   86.8709   12.5132 C.3     1  UNL1        0.1042
     22 N          63.4331   87.9192   12.6873 N.am    1  UNL1       -0.2994
     23 C          63.0457   89.3630   12.8116 C.2     1  UNL1        0.2503
     24 O          61.5996   89.7585   12.7618 O.2     1  UNL1       -0.2700
     25 H          64.3822   87.6597   12.7199 H       1  UNL1        0.1498
     26 C          64.1044   90.4113   12.9856 C.ar    1  UNL1        0.1081
     27 C          64.9599   90.4158   14.2177 C.ar    1  UNL1        0.1466
     28 F          64.7568   89.3721   15.2758 F       1  UNL1       -0.2039
     29 C          66.0186   91.4641   14.3918 C.ar    1  UNL1        0.0299
     30 C          66.2217   92.5078   13.3338 C.ar    1  UNL1        0.0046
     31 C          65.3662   92.5033   12.1017 C.ar    1  UNL1        0.0299
     32 C          64.3075   91.4550   11.9276 C.ar    1  UNL1        0.1466
     33 F          63.4519   91.4504   10.6956 F       1  UNL1       -0.2039
@<TRIPOS>BOND
     1    19    20    1
     2    20    18    1
     3    18    15    1
     4    15    16    2
     5    15    17    2
     6    15     9    1
     7     9    10    1
     8    10    11    1
     9    11    12    1
    10    12     1    1
    11     1    21    1
    12    21    22    1
    13    22    23   am
    14    23    24    2
    15    23    26    1
    16    26    27   ar
    17    27    28    1
    18    27    29   ar
    19    29    30   ar
    20    30    31   ar
    21    31    32   ar
    22    32    33    1
    23     1     2    1
    24     2     3    1
    25     3     4    1
    26     4     5    1
    27     4     6    1
    28     4     7    1
    29     7     8    1
    30    12    13    1
    31    13    14    1
    32    14     9    1
    33     8     1    1
    34    32    26   ar
    35    22    25    1
@<TRIPOS>MOLECULE
*****
 33 35 0 0 0
SMALL
GASTEIGER

@<TRIPOS>ATOM
      1 C          62.7109   85.6328   11.8823 C.3     1  UNL1        0.0638
      2 C          62.6856   84.5599   10.8343 C.3     1  UNL1        0.0220
      3 C          63.3917   83.2587   11.0760 C.3     1  UNL1        0.0680
      4 C          64.1229   83.0304   12.3656 C.3     1  UNL1        0.2640
      5 F          64.9445   82.3470   13.4182 F       1  UNL1       -0.2043
      6 F          64.3831   81.7202   11.6832 F       1  UNL1       -0.2043
      7 C          64.1481   84.1032   13.4136 C.3     1  UNL1        0.0680
      8 C          63.4421   85.4045   13.1719 C.3     1  UNL1        0.0220
      9 N          60.2461   87.6828    8.7244 N.3     1  UNL1       -0.1566
     10 C          59.8960   87.8478   10.1736 C.3     1  UNL1        0.1128
     11 C          60.7176   87.1645   11.2262 C.3     1  UNL1        0.0915
     12 N          61.8893   86.3161   10.8297 N.3     1  UNL1       -0.2711
     13 C          62.2394   86.1511    9.3805 C.3     1  UNL1        0.0915
     14 C          61.4179   86.8344    8.3279 C.3     1  UNL1        0.1128
     15 S          59.4246   88.3662    7.6718 S.O2    1  UNL1        0.0439
     16 O          58.7043   87.0791    7.3984 O.2     1  UNL1       -0.1573
     17 O          60.1448   89.6532    7.9452 O.2     1  UNL1       -0.1573
     18 C          58.6030   89.0495    6.6191 C.3     1  UNL1        0.1691
     19 C          58.2634   91.2133    5.2217 C.3     1  UNL1        0.0019
     20 C          59.1765   90.2039    5.8522 C.3     1  UNL1        0.0270
     21 C          62.4507   86.9430   12.5647 C.3     1  UNL1        0.1042
     22 N          63.4365   88.0659   12.4331 N.am    1  UNL1       -0.2994
     23 C          62.9872   89.4844   12.6225 C.2     1  UNL1        0.2503
     24 O          61.5521   89.7800   12.9435 O.2     1  UNL1       -0.2700
     25 H          64.3784   87.8719   12.2224 H       1  UNL1        0.1498
     26 C          63.9730   90.6074   12.4908 C.ar    1  UNL1        0.1081
     27 C          64.0444   91.3973   11.2178 C.ar    1  UNL1        0.1466
     28 F          63.1299   91.0644   10.0762 F       1  UNL1       -0.2039
     29 C          65.0301   92.5202   11.0861 C.ar    1  UNL1        0.0299
     30 C          65.9446   92.8531   12.2275 C.ar    1  UNL1        0.0046
     31 C          65.8733   92.0631   13.5007 C.ar    1  UNL1        0.0299
     32 C          64.8875   90.9402   13.6323 C.ar    1  UNL1        0.1466
     33 F          64.8161   90.1502   14.9054 F       1  UNL1       -0.2039
@<TRIPOS>BOND
     1    19    20    1
     2    20    18    1
     3    18    15    1
     4    15    16    2
     5    15    17    2
     6    15     9    1
     7     9    10    1
     8    10    11    1
     9    11    12    1
    10    12     1    1
    11     1    21    1
    12    21    22    1
    13    22    23   am
    14    23    24    2
    15    23    26    1
    16    26    27   ar
    17    27    28    1
    18    27    29   ar
    19    29    30   ar
    20    30    31   ar
    21    31    32   ar
    22    32    33    1
    23     1     2    1
    24     2     3    1
    25     3     4    1
    26     4     5    1
    27     4     6    1
    28     4     7    1
    29     7     8    1
    30    12    13    1
    31    13    14    1
    32    14     9    1
    33     8     1    1
    34    32    26   ar
    35    22    25    1
@<TRIPOS>MOLECULE
*****
 33 35 0 0 0
SMALL
GASTEIGER

@<TRIPOS>ATOM
      1 C          63.2449   82.4852   11.7536 C.3     1  UNL1        0.0638
      2 C          62.8126   81.4373   12.7359 C.3     1  UNL1        0.0220
      3 C          62.6237   80.0191   12.2852 C.3     1  UNL1        0.0680
      4 C          62.8671   79.6489   10.8522 C.3     1  UNL1        0.2640
      5 F          62.9732   78.8140    9.6105 F       1  UNL1       -0.2043
      6 F          62.4716   78.3110   11.4032 F       1  UNL1       -0.2043
      7 C          63.2995   80.6968    9.8698 C.3     1  UNL1        0.0680
      8 C          63.4884   82.1150   10.3206 C.3     1  UNL1        0.0220
      9 N          62.9266   84.9898   15.4785 N.3     1  UNL1       -0.1566
     10 C          64.0442   85.2291   14.5071 C.3     1  UNL1        0.1128
     11 C          64.1503   84.3942   13.2654 C.3     1  UNL1        0.0915
     12 N          63.1388   83.3201   12.9952 N.3     1  UNL1       -0.2711
     13 C          62.0213   83.0808   13.9667 C.3     1  UNL1        0.0915
     14 C          61.9152   83.9157   15.2083 C.3     1  UNL1        0.1128
     15 S          62.8205   85.8247   16.7202 S.O2    1  UNL1        0.0439
     16 O          64.3166   85.8644   16.8214 O.2     1  UNL1       -0.1573
     17 O          61.3245   85.7851   16.6190 O.2     1  UNL1       -0.1573
     18 C          62.7145   86.6596   17.9619 C.3     1  UNL1        0.1691
     19 C          63.0317   88.8298   16.5692 C.3     1  UNL1        0.0019
     20 C          62.9737   88.1356   17.8976 C.3     1  UNL1        0.0270
     21 C          63.6404   83.8231   11.2025 C.3     1  UNL1        0.1042
     22 N          62.5861   84.8287   10.8457 N.am    1  UNL1       -0.2994
     23 C          62.5664   85.4410    9.4765 C.2     1  UNL1        0.2503
     24 O          63.6010   85.0477    8.4641 O.2     1  UNL1       -0.2700
     25 H          61.9070   85.0868   11.5102 H       1  UNL1        0.1498
     26 C          61.5121   86.4465    9.1197 C.ar    1  UNL1        0.1081
     27 C          61.4117   87.7320    9.8861 C.ar    1  UNL1        0.1466
     28 F          62.3658   88.0120   11.0094 F       1  UNL1       -0.2039
     29 C          60.3575   88.7376    9.5294 C.ar    1  UNL1        0.0299
     30 C          59.4035   88.4576    8.4062 C.ar    1  UNL1        0.0046
     31 C          59.5038   87.1722    7.6397 C.ar    1  UNL1        0.0299
     32 C          60.5581   86.1666    7.9965 C.ar    1  UNL1        0.1466
     33 F          60.6585   84.8811    7.2301 F       1  UNL1       -0.2039
@<TRIPOS>BOND
     1    19    20    1
     2    20    18    1
     3    18    15    1
     4    15    16    2
     5    15    17    2
     6    15     9    1
     7     9    10    1
     8    10    11    1
     9    11    12    1
    10    12     1    1
    11     1    21    1
    12    21    22    1
    13    22    23   am
    14    23    24    2
    15    23    26    1
    16    26    27   ar
    17    27    28    1
    18    27    29   ar
    19    29    30   ar
    20    30    31   ar
    21    31    32   ar
    22    32    33    1
    23     1     2    1
    24     2     3    1
    25     3     4    1
    26     4     5    1
    27     4     6    1
    28     4     7    1
    29     7     8    1
    30    12    13    1
    31    13    14    1
    32    14     9    1
    33     8     1    1
    34    32    26   ar
    35    22    25    1
