@<TRIPOS>MOLECULE
*****
 28 31 0 0 0
SMALL
GASTEIGER

@<TRIPOS>ATOM
      1 N          62.5135   89.6968   10.5067 N.am    1  UNL1       -0.2996
      2 C          63.0851   90.1549   11.8158 C.2     1  UNL1        0.2651
      3 O          62.6744   89.4798   13.0907 O.2     1  UNL1       -0.2684
      4 H          62.7831   90.1399    9.6699 H       1  UNL1        0.1498
      5 C          64.0674   91.2880   11.8498 C.ar    1  UNL1        0.1517
      6 N          64.4474   92.1606   10.6904 N.ar    1  UNL1       -0.2260
      7 C          65.4570   93.1593   11.1733 C.ar    1  UNL1        0.1239
      8 N          65.7010   92.9041   12.6311 N.ar    1  UNL1       -0.2921
      9 C          66.5942   93.5753   13.6319 C.ar    1  UNL1        0.0811
     10 C          66.6285   93.0900   15.0508 C.ar    1  UNL1        0.0191
     11 C          65.7697   91.9335   15.4689 C.ar    1  UNL1        0.0031
     12 C          64.8765   91.2622   14.4681 C.ar    1  UNL1        0.0193
     13 C          64.8421   91.7475   13.0493 C.ar    1  UNL1        0.0872
     14 C          66.1083   94.2261   10.3439 C.3     1  UNL1        0.0573
     15 C          67.2475   93.8767    9.4326 C.3     1  UNL1        0.0079
     16 C          65.6206   95.6421   10.4258 C.3     1  UNL1        0.0079
     17 C          61.5313   88.5637   10.4727 C.3     1  UNL1        0.0898
     18 N          63.1847   83.7411   10.7776 N.3     1  UNL1       -0.2726
     19 C          63.0976   84.5659    9.5278 C.3     1  UNL1        0.0721
     20 C          62.5600   85.9159    9.8999 C.3     1  UNL1        0.0191
     21 C          62.0169   87.1473   10.5622 C.3     1  UNL1        0.0224
     22 C          62.3148   85.9255   11.3796 C.3     1  UNL1        0.0191
     23 C          62.7009   84.5813   11.9221 C.3     1  UNL1        0.0721
     24 C          63.6703   82.3247   10.8672 C.3     1  UNL1        0.0747
     25 C          63.0125   81.3648   11.8136 C.3     1  UNL1        0.0494
     26 C          63.5495   81.1958   13.2040 C.3     1  UNL1        0.1437
     27 C          61.1410   80.9666   14.1511 C.3     1  UNL1        0.1741
     28 O          62.6243   80.8266   14.3255 O.3     1  UNL1       -0.3511
@<TRIPOS>BOND
     1    27    28    1
     2    28    26    1
     3    26    25    1
     4    25    24    1
     5    24    18    1
     6    18    19    1
     7    20    19    1
     8    20    21    1
     9    21    17    1
    10    17     1    1
    11     1     2   am
    12     2     3    2
    13     2     5    1
    14     5     6   ar
    15     6     7   ar
    16     7    14    1
    17    14    15    1
    18    14    16    1
    19     7     8   ar
    20     8     9   ar
    21     9    10   ar
    22    10    11   ar
    23    11    12   ar
    24    12    13   ar
    25    21    22    1
    26    22    23    1
    27    23    18    1
    28    22    20    1
    29    13     5   ar
    30    13     8   ar
    31     1     4    1
@<TRIPOS>MOLECULE
*****
 28 31 0 0 0
SMALL
GASTEIGER

@<TRIPOS>ATOM
      1 N          62.5118   87.9529   11.9332 N.am    1  UNL1       -0.2996
      2 C          62.3181   86.7068   11.1207 C.2     1  UNL1        0.2651
      3 O          61.7790   86.7986    9.7240 O.2     1  UNL1       -0.2684
      4 H          62.8656   87.8927   12.8500 H       1  UNL1        0.1498
      5 C          62.6634   85.3692   11.7051 C.ar    1  UNL1        0.1517
      6 N          62.4080   84.0359   11.0672 N.ar    1  UNL1       -0.2260
      7 C          62.9116   82.9728   11.9979 C.ar    1  UNL1        0.1239
      8 N          63.4782   83.6490   13.2110 N.ar    1  UNL1       -0.2921
      9 C          64.1140   83.1075   14.4569 C.ar    1  UNL1        0.0811
     10 C          64.5964   84.0471   15.5220 C.ar    1  UNL1        0.0191
     11 C          64.4430   85.5283   15.3410 C.ar    1  UNL1        0.0031
     12 C          63.8072   86.0698   14.0951 C.ar    1  UNL1        0.0193
     13 C          63.3248   85.1302   13.0300 C.ar    1  UNL1        0.0872
     14 C          62.8580   81.4931   11.7576 C.3     1  UNL1        0.0573
     15 C          62.4293   80.5695   12.8592 C.3     1  UNL1        0.0079
     16 C          63.2330   80.9370   10.4161 C.3     1  UNL1        0.0079
     17 C          62.1664   89.2905   11.3488 C.3     1  UNL1        0.0898
     18 N          65.5187   93.1346   11.6127 N.3     1  UNL1       -0.2726
     19 C          64.7602   92.7086   10.3907 C.3     1  UNL1        0.0721
     20 C          63.8925   91.5441   10.7664 C.3     1  UNL1        0.0191
     21 C          63.1509   90.4195   11.4263 C.3     1  UNL1        0.0224
     22 C          64.1147   91.2504   12.2204 C.3     1  UNL1        0.0191
     23 C          65.1198   92.2334   12.7435 C.3     1  UNL1        0.0721
     24 C          66.5033   94.2635   11.6902 C.3     1  UNL1        0.0747
     25 C          66.6827   95.1840   10.5194 C.3     1  UNL1        0.0494
     26 C          67.6447   94.8268    9.4253 C.3     1  UNL1        0.1437
     27 C          68.6576   92.4607    9.0713 C.3     1  UNL1        0.1741
     28 O          68.7348   93.8288    9.6814 O.3     1  UNL1       -0.3511
@<TRIPOS>BOND
     1    27    28    1
     2    28    26    1
     3    26    25    1
     4    25    24    1
     5    24    18    1
     6    18    19    1
     7    20    19    1
     8    20    21    1
     9    21    17    1
    10    17     1    1
    11     1     2   am
    12     2     3    2
    13     2     5    1
    14     5     6   ar
    15     6     7   ar
    16     7    14    1
    17    14    15    1
    18    14    16    1
    19     7     8   ar
    20     8     9   ar
    21     9    10   ar
    22    10    11   ar
    23    11    12   ar
    24    12    13   ar
    25    21    22    1
    26    22    23    1
    27    23    18    1
    28    22    20    1
    29    13     5   ar
    30    13     8   ar
    31     1     4    1
@<TRIPOS>MOLECULE
*****
 28 31 0 0 0
SMALL
GASTEIGER

@<TRIPOS>ATOM
      1 N          64.2340   88.8096   13.5846 N.am    1  UNL1       -0.2996
      2 C          63.0087   88.6901   12.7274 C.2     1  UNL1        0.2651
      3 O          62.0477   89.8375   12.6289 O.2     1  UNL1       -0.2684
      4 H          64.8648   88.0565   13.6492 H       1  UNL1        0.1498
      5 C          62.7447   87.4233   11.9687 C.ar    1  UNL1        0.1517
      6 N          63.2536   86.0586   12.3273 N.ar    1  UNL1       -0.2260
      7 C          62.7488   85.0907   11.2985 C.ar    1  UNL1        0.1239
      8 N          61.9280   85.8572   10.3041 N.ar    1  UNL1       -0.2921
      9 C          61.1826   85.4287    9.0750 C.ar    1  UNL1        0.0811
     10 C          60.4347   86.4419    8.2602 C.ar    1  UNL1        0.0191
     11 C          60.4322   87.8836    8.6744 C.ar    1  UNL1        0.0031
     12 C          61.1776   88.3121    9.9035 C.ar    1  UNL1        0.0193
     13 C          61.9255   87.2989   10.7184 C.ar    1  UNL1        0.0872
     14 C          63.0176   83.6153   11.2692 C.3     1  UNL1        0.0573
     15 C          63.9108   83.0365   10.2121 C.3     1  UNL1        0.0079
     16 C          62.3934   82.7186   12.2968 C.3     1  UNL1        0.0079
     17 C          64.4980   90.0764   14.3432 C.3     1  UNL1        0.0898
     18 N          66.1434   94.2345   11.8759 N.3     1  UNL1       -0.2726
     19 C          65.2990   93.1401   11.2935 C.3     1  UNL1        0.0721
     20 C          65.0534   92.1225   12.3678 C.3     1  UNL1        0.0191
     21 C          64.9812   91.2976   13.6185 C.3     1  UNL1        0.0224
     22 C          65.7460   92.5879   13.6143 C.3     1  UNL1        0.0191
     23 C          66.4196   93.8933   13.3102 C.3     1  UNL1        0.0721
     24 C          66.6266   95.4557   11.1514 C.3     1  UNL1        0.0747
     25 C          66.6528   95.4768    9.6517 C.3     1  UNL1        0.0494
     26 C          67.7923   94.8400    8.9126 C.3     1  UNL1        0.1437
     27 C          68.7010   92.4427    9.3334 C.3     1  UNL1        0.1741
     28 O          68.7272   93.9127    9.6309 O.3     1  UNL1       -0.3511
@<TRIPOS>BOND
     1    27    28    1
     2    28    26    1
     3    26    25    1
     4    25    24    1
     5    24    18    1
     6    18    19    1
     7    20    19    1
     8    20    21    1
     9    21    17    1
    10    17     1    1
    11     1     2   am
    12     2     3    2
    13     2     5    1
    14     5     6   ar
    15     6     7   ar
    16     7    14    1
    17    14    15    1
    18    14    16    1
    19     7     8   ar
    20     8     9   ar
    21     9    10   ar
    22    10    11   ar
    23    11    12   ar
    24    12    13   ar
    25    21    22    1
    26    22    23    1
    27    23    18    1
    28    22    20    1
    29    13     5   ar
    30    13     8   ar
    31     1     4    1
@<TRIPOS>MOLECULE
*****
 28 31 0 0 0
SMALL
GASTEIGER

@<TRIPOS>ATOM
      1 N          64.1801   87.7816   15.2480 N.am    1  UNL1       -0.2996
      2 C          63.5423   89.1392   15.2255 C.2     1  UNL1        0.2651
      3 O          62.3525   89.4232   16.0936 O.2     1  UNL1       -0.2684
      4 H          64.9610   87.5951   14.6782 H       1  UNL1        0.1498
      5 C          64.0943   90.2125   14.3349 C.ar    1  UNL1        0.1517
      6 N          65.1020   91.2520   14.7273 N.ar    1  UNL1       -0.2260
      7 C          65.3660   92.1167   13.5304 C.ar    1  UNL1        0.1239
      8 N          64.5215   91.6116   12.3982 N.ar    1  UNL1       -0.2921
      9 C          64.3667   92.0713   10.9789 C.ar    1  UNL1        0.0811
     10 C          63.4259   91.3541   10.0567 C.ar    1  UNL1        0.0191
     11 C          62.6399   90.1772   10.5539 C.ar    1  UNL1        0.0031
     12 C          62.7947   89.7175   11.9733 C.ar    1  UNL1        0.0193
     13 C          63.7355   90.4347   12.8955 C.ar    1  UNL1        0.0872
     14 C          66.3090   93.2819   13.4753 C.3     1  UNL1        0.0573
     15 C          67.2536   93.5368   14.6123 C.3     1  UNL1        0.0079
     16 C          66.3074   94.1923   12.2832 C.3     1  UNL1        0.0079
     17 C          63.6280   86.7083   16.1386 C.3     1  UNL1        0.0898
     18 N          63.0705   81.9525   14.3621 N.3     1  UNL1       -0.2726
     19 C          64.3654   82.6975   14.4958 C.3     1  UNL1        0.0721
     20 C          64.0633   84.0550   15.0581 C.3     1  UNL1        0.0191
     21 C          63.4643   85.3115   15.6168 C.3     1  UNL1        0.0224
     22 C          62.5816   84.1488   15.2719 C.3     1  UNL1        0.0191
     23 C          61.9680   82.8494   14.8418 C.3     1  UNL1        0.0721
     24 C          62.9066   80.5557   13.8403 C.3     1  UNL1        0.0747
     25 C          62.7059   80.3222   12.3723 C.3     1  UNL1        0.0494
     26 C          62.8010   81.4695   11.4105 C.3     1  UNL1        0.1437
     27 C          64.2375   83.2406   10.1658 C.3     1  UNL1        0.1741
     28 O          64.1441   82.0102   11.0187 O.3     1  UNL1       -0.3511
@<TRIPOS>BOND
     1    27    28    1
     2    28    26    1
     3    26    25    1
     4    25    24    1
     5    24    18    1
     6    18    19    1
     7    20    19    1
     8    20    21    1
     9    21    17    1
    10    17     1    1
    11     1     2   am
    12     2     3    2
    13     2     5    1
    14     5     6   ar
    15     6     7   ar
    16     7    14    1
    17    14    15    1
    18    14    16    1
    19     7     8   ar
    20     8     9   ar
    21     9    10   ar
    22    10    11   ar
    23    11    12   ar
    24    12    13   ar
    25    21    22    1
    26    22    23    1
    27    23    18    1
    28    22    20    1
    29    13     5   ar
    30    13     8   ar
    31     1     4    1
@<TRIPOS>MOLECULE
*****
 28 31 0 0 0
SMALL
GASTEIGER

@<TRIPOS>ATOM
      1 N          64.1493   87.8954   14.9981 N.am    1  UNL1       -0.2996
      2 C          63.8348   89.3423   15.2386 C.2     1  UNL1        0.2651
      3 O          63.0356   89.7460   16.4420 O.2     1  UNL1       -0.2684
      4 H          64.6739   87.6304   14.2083 H       1  UNL1        0.1498
      5 C          64.3195   90.3853   14.2757 C.ar    1  UNL1        0.1517
      6 N          63.9098   90.5171   12.8388 N.ar    1  UNL1       -0.2260
      7 C          64.6361   91.6929   12.2557 C.ar    1  UNL1        0.1239
      8 N          65.4948   92.2877   13.3322 N.ar    1  UNL1       -0.2921
      9 C          66.4296   93.4608   13.3370 C.ar    1  UNL1        0.0811
     10 C          67.1686   93.8257   14.5901 C.ar    1  UNL1        0.0191
     11 C          66.9730   93.0176   15.8386 C.ar    1  UNL1        0.0031
     12 C          66.0382   91.8445   15.8338 C.ar    1  UNL1        0.0193
     13 C          65.2991   91.4796   14.5807 C.ar    1  UNL1        0.0872
     14 C          64.5236   92.1871   10.8439 C.3     1  UNL1        0.0573
     15 C          63.4621   91.6358    9.9387 C.3     1  UNL1        0.0079
     16 C          65.4725   93.2324   10.3373 C.3     1  UNL1        0.0079
     17 C          63.6646   86.8524   15.9611 C.3     1  UNL1        0.0898
     18 N          63.1111   82.0147   14.4201 N.3     1  UNL1       -0.2726
     19 C          64.3995   82.7809   14.4741 C.3     1  UNL1        0.0721
     20 C          64.0985   84.1585   14.9855 C.3     1  UNL1        0.0191
     21 C          63.5021   85.4316   15.5085 C.3     1  UNL1        0.0224
     22 C          62.6240   84.2438   15.2476 C.3     1  UNL1        0.0191
     23 C          62.0138   82.9188   14.8982 C.3     1  UNL1        0.0721
     24 C          62.9485   80.5939   13.9676 C.3     1  UNL1        0.0747
     25 C          62.4590   80.2999   12.5805 C.3     1  UNL1        0.0494
     26 C          63.1795   80.8697   11.3945 C.3     1  UNL1        0.1437
     27 C          64.3690   83.1092   10.8293 C.3     1  UNL1        0.1741
     28 O          63.1119   82.3412   11.1118 O.3     1  UNL1       -0.3511
@<TRIPOS>BOND
     1    27    28    1
     2    28    26    1
     3    26    25    1
     4    25    24    1
     5    24    18    1
     6    18    19    1
     7    20    19    1
     8    20    21    1
     9    21    17    1
    10    17     1    1
    11     1     2   am
    12     2     3    2
    13     2     5    1
    14     5     6   ar
    15     6     7   ar
    16     7    14    1
    17    14    15    1
    18    14    16    1
    19     7     8   ar
    20     8     9   ar
    21     9    10   ar
    22    10    11   ar
    23    11    12   ar
    24    12    13   ar
    25    21    22    1
    26    22    23    1
    27    23    18    1
    28    22    20    1
    29    13     5   ar
    30    13     8   ar
    31     1     4    1
@<TRIPOS>MOLECULE
*****
 28 31 0 0 0
SMALL
GASTEIGER

@<TRIPOS>ATOM
      1 N          62.7903   89.7734   10.7400 N.am    1  UNL1       -0.2996
      2 C          63.2533   89.5987   12.1561 C.2     1  UNL1        0.2651
      3 O          62.8472   88.3816   12.9330 O.2     1  UNL1       -0.2684
      4 H          63.0568   90.5723   10.2301 H       1  UNL1        0.1498
      5 C          64.1223   90.6410   12.7951 C.ar    1  UNL1        0.1517
      6 N          64.4927   90.7109   14.2470 N.ar    1  UNL1       -0.2260
      7 C          65.3728   91.9096   14.4436 C.ar    1  UNL1        0.1239
      8 N          65.5463   92.5805   13.1132 N.ar    1  UNL1       -0.2921
      9 C          66.3081   93.8041   12.6979 C.ar    1  UNL1        0.0811
     10 C          66.2970   94.2436   11.2639 C.ar    1  UNL1        0.0191
     11 C          65.5242   93.4595   10.2451 C.ar    1  UNL1        0.0031
     12 C          64.7623   92.2360   10.6603 C.ar    1  UNL1        0.0193
     13 C          64.7734   91.7965   12.0944 C.ar    1  UNL1        0.0872
     14 C          65.9739   92.3586   15.7425 C.3     1  UNL1        0.0573
     15 C          67.4405   92.6629   15.8247 C.3     1  UNL1        0.0079
     16 C          65.1086   92.5032   16.9591 C.3     1  UNL1        0.0079
     17 C          61.9213   88.7311   10.1010 C.3     1  UNL1        0.0898
     18 N          63.1296   83.7872   10.5286 N.3     1  UNL1       -0.2726
     19 C          63.1981   84.6063    9.2739 C.3     1  UNL1        0.0721
     20 C          62.7548   86.0004    9.6055 C.3     1  UNL1        0.0191
     21 C          62.2762   87.2791   10.2266 C.3     1  UNL1        0.0224
     22 C          62.4122   86.0429   11.0652 C.3     1  UNL1        0.0191
     23 C          62.6439   84.6751   11.6358 C.3     1  UNL1        0.0721
     24 C          63.4845   82.3353   10.6543 C.3     1  UNL1        0.0747
     25 C          62.9442   81.5273   11.7967 C.3     1  UNL1        0.0494
     26 C          63.7230   81.4208   13.0744 C.3     1  UNL1        0.1437
     27 C          62.5538   82.9241   14.8415 C.3     1  UNL1        0.1741
     28 O          63.0246   81.5724   14.3932 O.3     1  UNL1       -0.3511
@<TRIPOS>BOND
     1    27    28    1
     2    28    26    1
     3    26    25    1
     4    25    24    1
     5    24    18    1
     6    18    19    1
     7    20    19    1
     8    20    21    1
     9    21    17    1
    10    17     1    1
    11     1     2   am
    12     2     3    2
    13     2     5    1
    14     5     6   ar
    15     6     7   ar
    16     7    14    1
    17    14    15    1
    18    14    16    1
    19     7     8   ar
    20     8     9   ar
    21     9    10   ar
    22    10    11   ar
    23    11    12   ar
    24    12    13   ar
    25    21    22    1
    26    22    23    1
    27    23    18    1
    28    22    20    1
    29    13     5   ar
    30    13     8   ar
    31     1     4    1
@<TRIPOS>MOLECULE
*****
 28 31 0 0 0
SMALL
GASTEIGER

@<TRIPOS>ATOM
      1 N          60.1017   88.7736    8.7060 N.am    1  UNL1       -0.2996
      2 C          60.9695   87.6181    9.1086 C.2     1  UNL1        0.2651
      3 O          61.0082   86.3793    8.2638 O.2     1  UNL1       -0.2684
      4 H          60.0762   89.5867    9.2604 H       1  UNL1        0.1498
      5 C          61.7984   87.7016   10.3560 C.ar    1  UNL1        0.1517
      6 N          62.2978   88.9609   11.0000 N.ar    1  UNL1       -0.2260
      7 C          63.0815   88.5780   12.2204 C.ar    1  UNL1        0.1239
      8 N          63.0665   87.0821   12.3305 N.ar    1  UNL1       -0.2921
      9 C          63.6724   86.1432   13.3312 C.ar    1  UNL1        0.0811
     10 C          63.4853   84.6627   13.1795 C.ar    1  UNL1        0.0191
     11 C          62.6923   84.1211   12.0272 C.ar    1  UNL1        0.0031
     12 C          62.0864   85.0599   11.0266 C.ar    1  UNL1        0.0193
     13 C          62.2735   86.5404   11.1782 C.ar    1  UNL1        0.0872
     14 C          63.7610   89.5247   13.1648 C.3     1  UNL1        0.0573
     15 C          64.0192   90.9427   12.7488 C.3     1  UNL1        0.0079
     16 C          64.1823   89.0537   14.5251 C.3     1  UNL1        0.0079
     17 C          59.2728   88.6900    7.4586 C.3     1  UNL1        0.0898
     18 N          59.7195   92.2775    3.8509 N.3     1  UNL1       -0.2726
     19 C          60.8371   91.4528    4.4174 C.3     1  UNL1        0.0721
     20 C          60.2560   90.5292    5.4467 C.3     1  UNL1        0.0191
     21 C          59.4040   89.7436    6.3991 C.3     1  UNL1        0.0224
     22 C          58.7793   90.7830    5.5163 C.3     1  UNL1        0.0191
     23 C          58.4477   91.8635    4.5300 C.3     1  UNL1        0.0721
     24 C          59.8507   93.3311    2.7914 C.3     1  UNL1        0.0747
     25 C          60.1633   92.9384    1.3778 C.3     1  UNL1        0.0494
     26 C          61.4810   93.3159    0.7685 C.3     1  UNL1        0.1437
     27 C          63.5332   92.4973    2.1354 C.3     1  UNL1        0.1741
     28 O          62.6571   93.6141    1.6506 O.3     1  UNL1       -0.3511
@<TRIPOS>BOND
     1    27    28    1
     2    28    26    1
     3    26    25    1
     4    25    24    1
     5    24    18    1
     6    18    19    1
     7    20    19    1
     8    20    21    1
     9    21    17    1
    10    17     1    1
    11     1     2   am
    12     2     3    2
    13     2     5    1
    14     5     6   ar
    15     6     7   ar
    16     7    14    1
    17    14    15    1
    18    14    16    1
    19     7     8   ar
    20     8     9   ar
    21     9    10   ar
    22    10    11   ar
    23    11    12   ar
    24    12    13   ar
    25    21    22    1
    26    22    23    1
    27    23    18    1
    28    22    20    1
    29    13     5   ar
    30    13     8   ar
    31     1     4    1
@<TRIPOS>MOLECULE
*****
 28 31 0 0 0
SMALL
GASTEIGER

@<TRIPOS>ATOM
      1 N          59.7696   88.4276    8.4243 N.am    1  UNL1       -0.2996
      2 C          60.4008   87.0946    8.6978 C.2     1  UNL1        0.2651
      3 O          60.1604   85.9453    7.7645 O.2     1  UNL1       -0.2684
      4 H          59.9273   89.1820    9.0368 H       1  UNL1        0.1498
      5 C          61.2724   86.9111    9.9048 C.ar    1  UNL1        0.1517
      6 N          61.6240   85.6022   10.5476 N.ar    1  UNL1       -0.2260
      7 C          62.5143   85.8864   11.7209 C.ar    1  UNL1        0.1239
      8 N          62.7129   87.3709   11.8032 N.ar    1  UNL1       -0.2921
      9 C          63.4935   88.2279   12.7552 C.ar    1  UNL1        0.0811
     10 C          63.5065   89.7181   12.5847 C.ar    1  UNL1        0.0191
     11 C          62.7390   90.3513   11.4623 C.ar    1  UNL1        0.0031
     12 C          61.9584   89.4944   10.5103 C.ar    1  UNL1        0.0193
     13 C          61.9453   88.0042   10.6808 C.ar    1  UNL1        0.0872
     14 C          63.1027   84.8654   12.6489 C.3     1  UNL1        0.0573
     15 C          63.7820   85.3036   13.9126 C.3     1  UNL1        0.0079
     16 C          63.0118   83.4063   12.3135 C.3     1  UNL1        0.0079
     17 C          58.8980   88.6112    7.2173 C.3     1  UNL1        0.0898
     18 N          59.8983   92.3555    3.8911 N.3     1  UNL1       -0.2726
     19 C          58.5489   92.0047    4.4441 C.3     1  UNL1        0.0721
     20 C          58.7189   90.8459    5.3813 C.3     1  UNL1        0.0191
     21 C          59.1917   89.7109    6.2404 C.3     1  UNL1        0.0224
     22 C          60.1735   90.4805    5.4075 C.3     1  UNL1        0.0191
     23 C          60.9024   91.4135    4.4865 C.3     1  UNL1        0.0721
     24 C          60.1922   93.4552    2.9142 C.3     1  UNL1        0.0747
     25 C          60.9615   93.1593    1.6609 C.3     1  UNL1        0.0494
     26 C          62.1871   93.9573    1.3273 C.3     1  UNL1        0.1437
     27 C          64.7276   93.4784    1.0692 C.3     1  UNL1        0.1741
     28 O          63.5085   93.5918    1.9359 O.3     1  UNL1       -0.3511
@<TRIPOS>BOND
     1    27    28    1
     2    28    26    1
     3    26    25    1
     4    25    24    1
     5    24    18    1
     6    18    19    1
     7    20    19    1
     8    20    21    1
     9    21    17    1
    10    17     1    1
    11     1     2   am
    12     2     3    2
    13     2     5    1
    14     5     6   ar
    15     6     7   ar
    16     7    14    1
    17    14    15    1
    18    14    16    1
    19     7     8   ar
    20     8     9   ar
    21     9    10   ar
    22    10    11   ar
    23    11    12   ar
    24    12    13   ar
    25    21    22    1
    26    22    23    1
    27    23    18    1
    28    22    20    1
    29    13     5   ar
    30    13     8   ar
    31     1     4    1
@<TRIPOS>MOLECULE
*****
 28 31 0 0 0
SMALL
GASTEIGER

@<TRIPOS>ATOM
      1 N          64.2876   87.9618   14.9812 N.am    1  UNL1       -0.2996
      2 C          63.7103   89.3426   15.0839 C.2     1  UNL1        0.2651
      3 O          62.6231   89.6289   16.0767 O.2     1  UNL1       -0.2684
      4 H          65.0012   87.7738   14.3295 H       1  UNL1        0.1498
      5 C          64.2205   90.4369   14.1938 C.ar    1  UNL1        0.1517
      6 N          65.1812   91.5189   14.5889 N.ar    1  UNL1       -0.2260
      7 C          65.4139   92.3920   13.3916 C.ar    1  UNL1        0.1239
      8 N          64.5970   91.8495   12.2565 N.ar    1  UNL1       -0.2921
      9 C          64.4294   92.2998   10.8355 C.ar    1  UNL1        0.0811
     10 C          63.5243   91.5417    9.9104 C.ar    1  UNL1        0.0191
     11 C          62.7867   90.3333   10.4062 C.ar    1  UNL1        0.0031
     12 C          62.9542   89.8831   11.8272 C.ar    1  UNL1        0.0193
     13 C          63.8594   90.6412   12.7523 C.ar    1  UNL1        0.0872
     14 C          66.3068   93.5961   13.3386 C.3     1  UNL1        0.0573
     15 C          66.2574   94.5149   12.1538 C.3     1  UNL1        0.0079
     16 C          67.2491   93.8815   14.4701 C.3     1  UNL1        0.0079
     17 C          63.7774   86.8675   15.8713 C.3     1  UNL1        0.0898
     18 N          63.4040   82.0946   14.0926 N.3     1  UNL1       -0.2726
     19 C          64.5067   83.0649   13.7887 C.3     1  UNL1        0.0721
     20 C          64.2144   84.3422   14.5189 C.3     1  UNL1        0.0191
     21 C          63.6678   85.4657   15.3489 C.3     1  UNL1        0.0224
     22 C          62.9311   84.1613   15.2741 C.3     1  UNL1        0.0191
     23 C          62.4302   82.7721   15.0106 C.3     1  UNL1        0.0721
     24 C          63.2943   80.6927   13.5702 C.3     1  UNL1        0.0747
     25 C          62.0544   79.8900   13.8313 C.3     1  UNL1        0.0494
     26 C          60.7047   80.5324   13.7055 C.3     1  UNL1        0.1437
     27 C          58.6669   79.1539   14.5403 C.3     1  UNL1        0.1741
     28 O          59.6498   80.2695   14.7389 O.3     1  UNL1       -0.3511
@<TRIPOS>BOND
     1    27    28    1
     2    28    26    1
     3    26    25    1
     4    25    24    1
     5    24    18    1
     6    18    19    1
     7    20    19    1
     8    20    21    1
     9    21    17    1
    10    17     1    1
    11     1     2   am
    12     2     3    2
    13     2     5    1
    14     5     6   ar
    15     6     7   ar
    16     7    14    1
    17    14    15    1
    18    14    16    1
    19     7     8   ar
    20     8     9   ar
    21     9    10   ar
    22    10    11   ar
    23    11    12   ar
    24    12    13   ar
    25    21    22    1
    26    22    23    1
    27    23    18    1
    28    22    20    1
    29    13     5   ar
    30    13     8   ar
    31     1     4    1
