@<TRIPOS>MOLECULE
*****
 37 41 0 0 0
SMALL
GASTEIGER

@<TRIPOS>ATOM
      1 C          63.3918   90.8474   11.6175 C.3     1  UNL1        0.0799
      2 C          63.6844   91.7401   10.4481 C.3     1  UNL1        0.0178
      3 C          64.8508   92.6820   10.4969 C.3     1  UNL1        0.0029
      4 C          65.7246   92.7312   11.7151 C.3     1  UNL1        0.0178
      5 C          65.4320   91.8385   12.8845 C.3     1  UNL1        0.0795
      6 N          64.2657   90.8966   12.8357 N.3     1  UNL1       -0.1583
      7 C          62.2254   89.9055   11.5687 C.3     1  UNL1        0.0237
      8 C          61.0989   90.8909   11.4696 C.3     1  UNL1        0.0019
      9 C          60.8085   89.4194   11.4914 C.3     1  UNL1        0.0019
     10 C          62.9469   88.5930   11.6508 C.3     1  UNL1        0.0866
     11 N          62.6615   83.2197   12.1952 N.3     1  UNL1       -0.2699
     12 C          62.2579   83.5166   10.7814 C.3     1  UNL1        0.0939
     13 C          62.2284   84.9342   10.2919 C.3     1  UNL1        0.1107
     14 N          62.6024   86.0548   11.2162 N.am    1  UNL1       -0.2767
     15 C          62.5729   87.4724   10.7266 C.2     1  UNL1        0.2258
     16 O          62.1693   87.7693    9.3127 O.2     1  UNL1       -0.2749
     17 C          63.0060   85.7579   12.6300 C.3     1  UNL1        0.1107
     18 C          63.0355   84.3403   13.1196 C.3     1  UNL1        0.0939
     19 C          62.3707   82.2747   14.0719 C.3     1  UNL1        0.0186
     20 C          62.6910   81.8021   12.6848 C.3     1  UNL1        0.0726
     21 C          63.0114   81.3297   11.2977 C.3     1  UNL1        0.0186
     22 C          62.7206   80.3847   13.1745 C.3     1  UNL1        0.1516
     23 O          63.4318   80.0468   14.4513 O.3     1  UNL1       -0.3806
     24 H          64.3832   80.2006   14.3418 H       1  UNL1        0.2105
     25 C          66.3058   91.8877   14.1027 C.3     1  UNL1        0.0164
     26 C          67.5925   91.5449   14.7932 C.3     1  UNL1        0.0014
     27 C          66.5323   92.3158   15.5224 C.3     1  UNL1        0.0014
     28 S          63.9730   90.0039   14.0051 S.O2    1  UNL1        0.0632
     29 O          64.6241   88.8581   13.7124 O.2     1  UNL1       -0.1528
     30 O          63.1544   91.0935   14.6319 O.2     1  UNL1       -0.1528
     31 C          63.6803   89.1113   15.1745 C.ar    1  UNL1        0.1222
     32 C          63.9489   87.6386   15.0796 C.ar    1  UNL1        0.0208
     33 C          63.6561   86.7460   16.2490 C.ar    1  UNL1        0.0128
     34 C          63.0949   87.3259   17.5134 C.ar    1  UNL1        0.0578
     35 CL         62.8022   86.4333   18.6827 Cl      1  UNL1       -0.0822
     36 C          62.8263   88.7987   17.6083 C.ar    1  UNL1        0.0128
     37 C          63.1190   89.6914   16.4388 C.ar    1  UNL1        0.0208
@<TRIPOS>BOND
     1    19    20    1
     2    20    21    1
     3    20    22    1
     4    22    23    1
     5    20    11    1
     6    11    12    1
     7    12    13    1
     8    13    14    1
     9    14    15   am
    10    15    16    2
    11    15    10    1
    12    10     7    1
    13     1     7    1
    14     1     2    1
    15     2     3    1
    16     3     4    1
    17     4     5    1
    18     5    25    1
    19    25    26    1
    20    26    27    1
    21     5     6    1
    22     6    28    1
    23    28    29    2
    24    28    30    2
    25    28    31    1
    26    31    32   ar
    27    32    33   ar
    28    33    34   ar
    29    34    35    1
    30    34    36   ar
    31    36    37   ar
    32     7     8    1
    33     8     9    1
    34    14    17    1
    35    17    18    1
    36    18    11    1
    37     9     7    1
    38     6     1    1
    39    37    31   ar
    40    27    25    1
    41    23    24    1
@<TRIPOS>MOLECULE
*****
 37 41 0 0 0
SMALL
GASTEIGER

@<TRIPOS>ATOM
      1 C          60.5441   88.7613    9.7541 C.3     1  UNL1        0.0799
      2 C          59.7858   89.7460    8.9143 C.3     1  UNL1        0.0178
      3 C          59.4177   89.4004    7.5019 C.3     1  UNL1        0.0029
      4 C          59.8080   88.0700    6.9292 C.3     1  UNL1        0.0178
      5 C          60.5663   87.0854    7.7690 C.3     1  UNL1        0.0795
      6 N          60.9344   87.4310    9.1815 N.3     1  UNL1       -0.1583
      7 C          60.9122   89.1069   11.1666 C.3     1  UNL1        0.0237
      8 C          59.5458   89.1835   11.7806 C.3     1  UNL1        0.0019
      9 C          60.7614   89.4375   12.6220 C.3     1  UNL1        0.0019
     10 C          62.4065   89.1504   11.0432 C.3     1  UNL1        0.0866
     11 N          65.9292   91.8736   14.1132 N.3     1  UNL1       -0.2699
     12 C          65.6922   92.7224   12.8994 C.3     1  UNL1        0.0939
     13 C          64.7521   92.2538   11.8285 C.3     1  UNL1        0.1107
     14 N          64.0493   90.9364   11.9714 N.am    1  UNL1       -0.2767
     15 C          63.1094   90.4678   10.9004 C.2     1  UNL1        0.2258
     16 O          62.8723   91.3166    9.6866 O.2     1  UNL1       -0.2749
     17 C          64.2864   90.0875   13.1851 C.3     1  UNL1        0.1107
     18 C          65.2264   90.5561   14.2561 C.3     1  UNL1        0.0939
     19 C          65.7082   92.5556   16.1096 C.3     1  UNL1        0.0186
     20 C          66.8692   92.3421   15.1842 C.3     1  UNL1        0.0726
     21 C          68.0302   92.1286   14.2587 C.3     1  UNL1        0.0186
     22 C          67.8091   92.8106   16.2551 C.3     1  UNL1        0.1516
     23 O          68.3762   94.1983   16.2008 O.3     1  UNL1       -0.3806
     24 H          68.9568   94.2803   15.4281 H       1  UNL1        0.2105
     25 C          60.9566   85.7550    7.1964 C.3     1  UNL1        0.0164
     26 C          62.0159   84.8074    6.7169 C.3     1  UNL1        0.0014
     27 C          60.5731   84.3983    6.6842 C.3     1  UNL1        0.0014
     28 S          61.6927   86.4463   10.0213 S.O2    1  UNL1        0.0632
     29 O          60.7866   86.0249   10.9290 O.2     1  UNL1       -0.1528
     30 O          62.9196   86.6833    9.1914 O.2     1  UNL1       -0.1528
     31 C          62.4512   85.4617   10.8612 C.ar    1  UNL1        0.1222
     32 C          63.1938   84.3340   10.2078 C.ar    1  UNL1        0.0208
     33 C          63.9523   83.3493   11.0476 C.ar    1  UNL1        0.0128
     34 C          63.9682   83.4923   12.5407 C.ar    1  UNL1        0.0578
     35 CL         64.7266   82.5077   13.3804 Cl      1  UNL1       -0.0822
     36 C          63.2255   84.6200   13.1940 C.ar    1  UNL1        0.0128
     37 C          62.4670   85.6048   12.3542 C.ar    1  UNL1        0.0208
@<TRIPOS>BOND
     1    19    20    1
     2    20    21    1
     3    20    22    1
     4    22    23    1
     5    20    11    1
     6    11    12    1
     7    12    13    1
     8    13    14    1
     9    14    15   am
    10    15    16    2
    11    15    10    1
    12    10     7    1
    13     1     7    1
    14     1     2    1
    15     2     3    1
    16     3     4    1
    17     4     5    1
    18     5    25    1
    19    25    26    1
    20    26    27    1
    21     5     6    1
    22     6    28    1
    23    28    29    2
    24    28    30    2
    25    28    31    1
    26    31    32   ar
    27    32    33   ar
    28    33    34   ar
    29    34    35    1
    30    34    36   ar
    31    36    37   ar
    32     7     8    1
    33     8     9    1
    34    14    17    1
    35    17    18    1
    36    18    11    1
    37     9     7    1
    38     6     1    1
    39    37    31   ar
    40    27    25    1
    41    23    24    1
@<TRIPOS>MOLECULE
*****
 37 41 0 0 0
SMALL
GASTEIGER

@<TRIPOS>ATOM
      1 C          60.9027   89.2121   10.4565 C.3     1  UNL1        0.0799
      2 C          60.2165   90.3063    9.6936 C.3     1  UNL1        0.0178
      3 C          59.7356   90.0576    8.2947 C.3     1  UNL1        0.0029
      4 C          59.9410   88.7146    7.6587 C.3     1  UNL1        0.0178
      5 C          60.6272   87.6205    8.4215 C.3     1  UNL1        0.0795
      6 N          61.1080   87.8692    9.8204 N.3     1  UNL1       -0.1583
      7 C          61.3836   89.4608   11.8554 C.3     1  UNL1        0.0237
      8 C          60.0684   89.5470   12.5715 C.3     1  UNL1        0.0019
      9 C          61.3497   89.7095   13.3343 C.3     1  UNL1        0.0019
     10 C          62.8658   89.4610   11.6252 C.3     1  UNL1        0.0866
     11 N          65.8878   93.9010   10.9892 N.3     1  UNL1       -0.2699
     12 C          66.0805   93.4669   12.4120 C.3     1  UNL1        0.0939
     13 C          65.3731   92.2483   12.9267 C.3     1  UNL1        0.1107
     14 N          64.4731   91.4640   12.0185 N.am    1  UNL1       -0.2767
     15 C          63.7658   90.2454   12.5333 C.2     1  UNL1        0.2258
     16 O          63.9585   89.8113   13.9561 O.2     1  UNL1       -0.2749
     17 C          64.2804   91.8980   10.5957 C.3     1  UNL1        0.1107
     18 C          64.9878   93.1166   10.0811 C.3     1  UNL1        0.0939
     19 C          66.0080   95.9316   11.5905 C.3     1  UNL1        0.0186
     20 C          66.5952   95.1195   10.4745 C.3     1  UNL1        0.0726
     21 C          67.1823   94.3073    9.3585 C.3     1  UNL1        0.0186
     22 C          67.3024   96.3380    9.9598 C.3     1  UNL1        0.1516
     23 O          67.9391   96.3181    8.6017 O.3     1  UNL1       -0.3806
     24 H          68.6774   95.6890    8.5999 H       1  UNL1        0.2105
     25 C          60.8326   86.2777    7.7856 C.3     1  UNL1        0.0164
     26 C          61.7480   85.1685    7.3593 C.3     1  UNL1        0.0014
     27 C          60.2727   85.0608    7.1104 C.3     1  UNL1        0.0014
     28 S          61.7943   86.7751   10.5834 S.O2    1  UNL1        0.0632
     29 O          60.8654   86.3648   11.4729 O.2     1  UNL1       -0.1528
     30 O          63.0293   86.9721    9.7550 O.2     1  UNL1       -0.1528
     31 C          62.4806   85.6810   11.3462 C.ar    1  UNL1        0.1222
     32 C          63.0245   85.9505   12.7179 C.ar    1  UNL1        0.0208
     33 C          63.7109   84.8564   13.4808 C.ar    1  UNL1        0.0128
     34 C          63.8533   83.4929   12.8721 C.ar    1  UNL1        0.0578
     35 CL         64.5396   82.3989   13.6349 Cl      1  UNL1       -0.0822
     36 C          63.3093   83.2235   11.5004 C.ar    1  UNL1        0.0128
     37 C          62.6229   84.3176   10.7374 C.ar    1  UNL1        0.0208
@<TRIPOS>BOND
     1    19    20    1
     2    20    21    1
     3    20    22    1
     4    22    23    1
     5    20    11    1
     6    11    12    1
     7    12    13    1
     8    13    14    1
     9    14    15   am
    10    15    16    2
    11    15    10    1
    12    10     7    1
    13     1     7    1
    14     1     2    1
    15     2     3    1
    16     3     4    1
    17     4     5    1
    18     5    25    1
    19    25    26    1
    20    26    27    1
    21     5     6    1
    22     6    28    1
    23    28    29    2
    24    28    30    2
    25    28    31    1
    26    31    32   ar
    27    32    33   ar
    28    33    34   ar
    29    34    35    1
    30    34    36   ar
    31    36    37   ar
    32     7     8    1
    33     8     9    1
    34    14    17    1
    35    17    18    1
    36    18    11    1
    37     9     7    1
    38     6     1    1
    39    37    31   ar
    40    27    25    1
    41    23    24    1
@<TRIPOS>MOLECULE
*****
 37 41 0 0 0
SMALL
GASTEIGER

@<TRIPOS>ATOM
      1 C          63.5930   90.2160   13.3488 C.3     1  UNL1        0.0799
      2 C          62.4347   89.6897   12.5544 C.3     1  UNL1        0.0178
      3 C          62.2556   90.1051   11.1243 C.3     1  UNL1        0.0029
      4 C          63.2349   91.0469   10.4885 C.3     1  UNL1        0.0178
      5 C          64.3932   91.5732   11.2829 C.3     1  UNL1        0.0795
      6 N          64.5724   91.1578   12.7131 N.3     1  UNL1       -0.1583
      7 C          63.7722   89.8006   14.7790 C.3     1  UNL1        0.0237
      8 C          63.4110   91.0822   15.4697 C.3     1  UNL1        0.0019
      9 C          63.8043   89.8804   16.2765 C.3     1  UNL1        0.0019
     10 C          64.1956   88.3748   14.5850 C.3     1  UNL1        0.0866
     11 N          63.0844   83.1416   13.7919 N.3     1  UNL1       -0.2699
     12 C          62.6715   83.4455   15.2015 C.3     1  UNL1        0.0939
     13 C          62.8461   84.8299   15.7522 C.3     1  UNL1        0.1107
     14 N          63.4336   85.9101   14.8932 N.am    1  UNL1       -0.2767
     15 C          63.6081   87.2944   15.4439 C.2     1  UNL1        0.2258
     16 O          63.1953   87.5984   16.8536 O.2     1  UNL1       -0.2749
     17 C          63.8464   85.6062   13.4835 C.3     1  UNL1        0.1107
     18 C          63.6718   84.2218   12.9329 C.3     1  UNL1        0.0939
     19 C          61.7533   81.5338   14.1698 C.3     1  UNL1        0.0186
     20 C          62.9098   81.7573   13.2411 C.3     1  UNL1        0.0726
     21 C          64.0663   81.9808   12.3125 C.3     1  UNL1        0.0186
     22 C          62.7352   80.3730   12.6904 C.3     1  UNL1        0.1516
     23 O          62.8261   80.1371   11.2118 O.3     1  UNL1       -0.3806
     24 H          62.0881   80.5829   10.7673 H       1  UNL1        0.2105
     25 C          65.3725   92.5149   10.6473 C.3     1  UNL1        0.0164
     26 C          65.7465   93.9003   10.2104 C.3     1  UNL1        0.0014
     27 C          66.6949   92.7606    9.9831 C.3     1  UNL1        0.0014
     28 S          65.7307   91.6841   13.5076 S.O2    1  UNL1        0.0632
     29 O          66.4742   90.5875   13.7669 O.2     1  UNL1       -0.1528
     30 O          65.1682   93.0712   13.4087 O.2     1  UNL1       -0.1528
     31 C          66.8891   92.2105   14.3021 C.ar    1  UNL1        0.1222
     32 C          66.6509   92.8706   15.6278 C.ar    1  UNL1        0.0208
     33 C          67.8092   93.3970   16.4223 C.ar    1  UNL1        0.0128
     34 C          69.2056   93.2633   15.8912 C.ar    1  UNL1        0.0578
     35 CL         70.3639   93.7897   16.6857 Cl      1  UNL1       -0.0822
     36 C          69.4437   92.6032   14.5655 C.ar    1  UNL1        0.0128
     37 C          68.2854   92.0767   13.7709 C.ar    1  UNL1        0.0208
@<TRIPOS>BOND
     1    19    20    1
     2    20    21    1
     3    20    22    1
     4    22    23    1
     5    20    11    1
     6    11    12    1
     7    12    13    1
     8    13    14    1
     9    14    15   am
    10    15    16    2
    11    15    10    1
    12    10     7    1
    13     1     7    1
    14     1     2    1
    15     2     3    1
    16     3     4    1
    17     4     5    1
    18     5    25    1
    19    25    26    1
    20    26    27    1
    21     5     6    1
    22     6    28    1
    23    28    29    2
    24    28    30    2
    25    28    31    1
    26    31    32   ar
    27    32    33   ar
    28    33    34   ar
    29    34    35    1
    30    34    36   ar
    31    36    37   ar
    32     7     8    1
    33     8     9    1
    34    14    17    1
    35    17    18    1
    36    18    11    1
    37     9     7    1
    38     6     1    1
    39    37    31   ar
    40    27    25    1
    41    23    24    1
@<TRIPOS>MOLECULE
*****
 37 41 0 0 0
SMALL
GASTEIGER

@<TRIPOS>ATOM
      1 C          64.3451   90.2937   14.9695 C.3     1  UNL1        0.0799
      2 C          65.3449   90.9691   15.8607 C.3     1  UNL1        0.0178
      3 C          66.2568   92.0212   15.3026 C.3     1  UNL1        0.0029
      4 C          66.1689   92.3979   13.8533 C.3     1  UNL1        0.0178
      5 C          65.1692   91.7225   12.9621 C.3     1  UNL1        0.0795
      6 N          64.2572   90.6704   13.5202 N.3     1  UNL1       -0.1583
      7 C          63.4332   89.2415   15.5275 C.3     1  UNL1        0.0237
      8 C          62.3720   90.1114   16.1335 C.3     1  UNL1        0.0019
      9 C          62.2627   88.6183   16.2288 C.3     1  UNL1        0.0019
     10 C          64.1776   88.0063   15.1154 C.3     1  UNL1        0.0866
     11 N          63.2413   83.0276   13.2217 N.3     1  UNL1       -0.2699
     12 C          63.1332   82.9319   14.7147 C.3     1  UNL1        0.0939
     13 C          63.3403   84.1527   15.5614 C.3     1  UNL1        0.1107
     14 N          63.6554   85.4691   14.9149 N.am    1  UNL1       -0.2767
     15 C          63.8625   86.6899   15.7617 C.2     1  UNL1        0.2258
     16 O          63.7544   86.5942   17.2548 O.2     1  UNL1       -0.2749
     17 C          63.7635   85.5648   13.4219 C.3     1  UNL1        0.1107
     18 C          63.5564   84.3439   12.5753 C.3     1  UNL1        0.0939
     19 C          64.0147   82.3369   11.3711 C.3     1  UNL1        0.0186
     20 C          63.0343   81.8068   12.3749 C.3     1  UNL1        0.0726
     21 C          62.0538   81.2768   13.3787 C.3     1  UNL1        0.0186
     22 C          62.8272   80.5861   11.5282 C.3     1  UNL1        0.1516
     23 O          63.1251   80.6332   10.0588 O.3     1  UNL1       -0.3806
     24 H          62.5065   81.2400    9.6228 H       1  UNL1        0.2105
     25 C          65.0812   92.0991   11.5129 C.3     1  UNL1        0.0164
     26 C          65.6176   92.8516   10.3313 C.3     1  UNL1        0.0014
     27 C          64.3924   91.9988   10.1841 C.3     1  UNL1        0.0014
     28 S          63.2574   89.9949   12.6291 S.O2    1  UNL1        0.0632
     29 O          63.8563   88.8345   12.2867 O.2     1  UNL1       -0.1528
     30 O          62.3221   91.1553   12.7989 O.2     1  UNL1       -0.1528
     31 C          62.2575   89.3195   11.7379 C.ar    1  UNL1        0.1222
     32 C          61.1075   90.1003   11.1742 C.ar    1  UNL1        0.0208
     33 C          60.1076   89.4249   10.2831 C.ar    1  UNL1        0.0128
     34 C          60.2576   87.9688    9.9557 C.ar    1  UNL1        0.0578
     35 CL         59.2578   87.2935    9.0646 Cl      1  UNL1       -0.0822
     36 C          61.4077   87.1881   10.5194 C.ar    1  UNL1        0.0128
     37 C          62.4076   87.8634   11.4106 C.ar    1  UNL1        0.0208
@<TRIPOS>BOND
     1    19    20    1
     2    20    21    1
     3    20    22    1
     4    22    23    1
     5    20    11    1
     6    11    12    1
     7    12    13    1
     8    13    14    1
     9    14    15   am
    10    15    16    2
    11    15    10    1
    12    10     7    1
    13     1     7    1
    14     1     2    1
    15     2     3    1
    16     3     4    1
    17     4     5    1
    18     5    25    1
    19    25    26    1
    20    26    27    1
    21     5     6    1
    22     6    28    1
    23    28    29    2
    24    28    30    2
    25    28    31    1
    26    31    32   ar
    27    32    33   ar
    28    33    34   ar
    29    34    35    1
    30    34    36   ar
    31    36    37   ar
    32     7     8    1
    33     8     9    1
    34    14    17    1
    35    17    18    1
    36    18    11    1
    37     9     7    1
    38     6     1    1
    39    37    31   ar
    40    27    25    1
    41    23    24    1
@<TRIPOS>MOLECULE
*****
 37 41 0 0 0
SMALL
GASTEIGER

@<TRIPOS>ATOM
      1 C          61.7994   86.9102   10.1422 C.3     1  UNL1        0.0799
      2 C          61.6330   86.8882    8.6516 C.3     1  UNL1        0.0178
      3 C          62.2054   85.7572    7.8497 C.3     1  UNL1        0.0029
      4 C          62.9443   84.6482    8.5383 C.3     1  UNL1        0.0178
      5 C          63.1106   84.6701   10.0289 C.3     1  UNL1        0.0795
      6 N          62.5382   85.8011   10.8308 N.3     1  UNL1       -0.1583
      7 C          61.2269   88.0412   10.9441 C.3     1  UNL1        0.0237
      8 C          59.7721   87.8842   10.6143 C.3     1  UNL1        0.0019
      9 C          60.2183   88.9813   11.5349 C.3     1  UNL1        0.0019
     10 C          62.4829   88.5910   11.5525 C.3     1  UNL1        0.0866
     11 N          65.9464   92.1813   13.6415 N.3     1  UNL1       -0.2699
     12 C          65.5288   92.7322   12.3103 C.3     1  UNL1        0.0939
     13 C          64.5584   91.9722   11.4552 C.3     1  UNL1        0.1107
     14 N          64.0059   90.6616   11.9315 N.am    1  UNL1       -0.2767
     15 C          63.0355   89.9017   11.0763 C.2     1  UNL1        0.2258
     16 O          62.6179   90.4525    9.7451 O.2     1  UNL1       -0.2749
     17 C          64.4235   90.1107   13.2627 C.3     1  UNL1        0.1107
     18 C          65.3938   90.8707   14.1177 C.3     1  UNL1        0.0939
     19 C          67.3480   91.6596   15.1458 C.3     1  UNL1        0.0186
     20 C          66.9167   92.9412   14.4966 C.3     1  UNL1        0.0726
     21 C          66.4853   94.2227   13.8474 C.3     1  UNL1        0.0186
     22 C          67.8869   93.7010   15.3517 C.3     1  UNL1        0.1516
     23 O          69.3547   93.4032   15.2666 O.3     1  UNL1       -0.3806
     24 H          69.5215   92.5044   15.5912 H       1  UNL1        0.2105
     25 C          63.8494   83.5612   10.7176 C.3     1  UNL1        0.0164
     26 C          64.2889   82.1279   10.7676 C.3     1  UNL1        0.0014
     27 C          64.6896   83.0738   11.8607 C.3     1  UNL1        0.0014
     28 S          62.7045   85.8232   12.3214 S.O2    1  UNL1        0.0632
     29 O          63.9028   86.4163   12.5078 O.2     1  UNL1       -0.1528
     30 O          61.3736   85.1494   12.4798 O.2     1  UNL1       -0.1528
     31 C          62.8707   85.8452   13.8121 C.ar    1  UNL1        0.1222
     32 C          62.1809   84.8170   14.6588 C.ar    1  UNL1        0.0208
     33 C          62.3471   84.8389   16.1494 C.ar    1  UNL1        0.0128
     34 C          63.2030   85.8891   16.7933 C.ar    1  UNL1        0.0578
     35 CL         63.3692   85.9110   18.2839 Cl      1  UNL1       -0.0822
     36 C          63.8928   86.9173   15.9465 C.ar    1  UNL1        0.0128
     37 C          63.7266   86.8953   14.4558 C.ar    1  UNL1        0.0208
@<TRIPOS>BOND
     1    19    20    1
     2    20    21    1
     3    20    22    1
     4    22    23    1
     5    20    11    1
     6    11    12    1
     7    12    13    1
     8    13    14    1
     9    14    15   am
    10    15    16    2
    11    15    10    1
    12    10     7    1
    13     1     7    1
    14     1     2    1
    15     2     3    1
    16     3     4    1
    17     4     5    1
    18     5    25    1
    19    25    26    1
    20    26    27    1
    21     5     6    1
    22     6    28    1
    23    28    29    2
    24    28    30    2
    25    28    31    1
    26    31    32   ar
    27    32    33   ar
    28    33    34   ar
    29    34    35    1
    30    34    36   ar
    31    36    37   ar
    32     7     8    1
    33     8     9    1
    34    14    17    1
    35    17    18    1
    36    18    11    1
    37     9     7    1
    38     6     1    1
    39    37    31   ar
    40    27    25    1
    41    23    24    1
@<TRIPOS>MOLECULE
*****
 37 41 0 0 0
SMALL
GASTEIGER

@<TRIPOS>ATOM
      1 C          63.7421   90.6378   13.8705 C.3     1  UNL1        0.0799
      2 C          63.0470   90.1298   15.0988 C.3     1  UNL1        0.0178
      3 C          63.5344   90.5353   16.4582 C.3     1  UNL1        0.0029
      4 C          64.7170   91.4487   16.5893 C.3     1  UNL1        0.0178
      5 C          65.4121   91.9567   15.3611 C.3     1  UNL1        0.0795
      6 N          64.9247   91.5513   14.0017 N.3     1  UNL1       -0.1583
      7 C          63.2548   90.2324   12.5111 C.3     1  UNL1        0.0237
      8 C          62.7414   91.5514   12.0144 C.3     1  UNL1        0.0019
      9 C          62.6478   90.3339   11.1431 C.3     1  UNL1        0.0019
     10 C          63.5988   88.7726   12.5356 C.3     1  UNL1        0.0866
     11 N          62.7750   83.4274   12.5442 N.3     1  UNL1       -0.2699
     12 C          62.1352   83.9449   11.2901 C.3     1  UNL1        0.0939
     13 C          62.1813   85.4106   10.9745 C.3     1  UNL1        0.1107
     14 N          62.8671   86.3587   11.9129 N.am    1  UNL1       -0.2767
     15 C          62.9131   87.8244   11.5972 C.2     1  UNL1        0.2258
     16 O          62.2733   88.3420   10.3430 O.2     1  UNL1       -0.2749
     17 C          63.5068   85.8413   13.1671 C.3     1  UNL1        0.1107
     18 C          63.4608   84.3755   13.4827 C.3     1  UNL1        0.0939
     19 C          62.2997   82.2773   14.2621 C.3     1  UNL1        0.0186
     20 C          62.7290   81.9617   12.8600 C.3     1  UNL1        0.0726
     21 C          63.1583   81.6461   11.4579 C.3     1  UNL1        0.0186
     22 C          62.6830   80.4961   13.1757 C.3     1  UNL1        0.1516
     23 O          63.1130   80.0060   14.5267 O.3     1  UNL1       -0.3806
     24 H          64.0626   80.1671   14.6419 H       1  UNL1        0.2105
     25 C          66.5946   92.8701   15.4921 C.3     1  UNL1        0.0164
     26 C          67.3943   94.0391   14.9980 C.3     1  UNL1        0.0014
     27 C          67.8433   93.2832   16.2134 C.3     1  UNL1        0.0014
     28 S          65.6198   92.0592   12.7733 S.O2    1  UNL1        0.0632
     29 O          64.8070   93.0364   12.3184 O.2     1  UNL1       -0.1528
     30 O          66.7241   91.0669   12.9879 O.2     1  UNL1       -0.1528
     31 C          66.3150   92.5671   11.5450 C.ar    1  UNL1        0.1222
     32 C          65.7726   93.7603   10.8155 C.ar    1  UNL1        0.0208
     33 C          66.4678   94.2681    9.5872 C.ar    1  UNL1        0.0128
     34 C          67.7053   93.5830    9.0883 C.ar    1  UNL1        0.0578
     35 CL         68.4005   94.0908    7.8600 Cl      1  UNL1       -0.0822
     36 C          68.2477   92.3898    9.8178 C.ar    1  UNL1        0.0128
     37 C          67.5526   91.8819   11.0462 C.ar    1  UNL1        0.0208
@<TRIPOS>BOND
     1    19    20    1
     2    20    21    1
     3    20    22    1
     4    22    23    1
     5    20    11    1
     6    11    12    1
     7    12    13    1
     8    13    14    1
     9    14    15   am
    10    15    16    2
    11    15    10    1
    12    10     7    1
    13     1     7    1
    14     1     2    1
    15     2     3    1
    16     3     4    1
    17     4     5    1
    18     5    25    1
    19    25    26    1
    20    26    27    1
    21     5     6    1
    22     6    28    1
    23    28    29    2
    24    28    30    2
    25    28    31    1
    26    31    32   ar
    27    32    33   ar
    28    33    34   ar
    29    34    35    1
    30    34    36   ar
    31    36    37   ar
    32     7     8    1
    33     8     9    1
    34    14    17    1
    35    17    18    1
    36    18    11    1
    37     9     7    1
    38     6     1    1
    39    37    31   ar
    40    27    25    1
    41    23    24    1
@<TRIPOS>MOLECULE
*****
 37 41 0 0 0
SMALL
GASTEIGER

@<TRIPOS>ATOM
      1 C          64.0635   91.0458   12.7376 C.3     1  UNL1        0.0799
      2 C          63.5314   90.0567   13.7318 C.3     1  UNL1        0.0178
      3 C          64.2060   89.8927   15.0614 C.3     1  UNL1        0.0029
      4 C          65.4128   90.7180   15.3969 C.3     1  UNL1        0.0178
      5 C          65.9450   91.7071   14.4028 C.3     1  UNL1        0.0795
      6 N          65.2704   91.8711   13.0731 N.3     1  UNL1       -0.1583
      7 C          63.3889   91.2097   11.4080 C.3     1  UNL1        0.0237
      8 C          64.5584   91.6418   10.5740 C.3     1  UNL1        0.0019
      9 C          63.2017   91.5039    9.9490 C.3     1  UNL1        0.0019
     10 C          61.9850   90.8346   11.7801 C.3     1  UNL1        0.0866
     11 N          62.5432   85.4769   11.2966 N.3     1  UNL1       -0.2699
     12 C          61.3886   85.8559   10.4173 C.3     1  UNL1        0.0939
     13 C          60.9605   87.2901   10.3183 C.3     1  UNL1        0.1107
     14 N          61.6869   88.3452   11.0987 N.am    1  UNL1       -0.2767
     15 C          61.2587   89.7794   10.9997 C.2     1  UNL1        0.2258
     16 O          60.1041   90.1585   10.1203 O.2     1  UNL1       -0.2749
     17 C          62.8414   87.9662   11.9781 C.3     1  UNL1        0.1107
     18 C          63.2696   86.5320   12.0770 C.3     1  UNL1        0.0939
     19 C          62.5831   84.0269   12.8444 C.3     1  UNL1        0.0186
     20 C          62.9714   84.0427   11.3956 C.3     1  UNL1        0.0726
     21 C          63.3596   84.0586    9.9469 C.3     1  UNL1        0.0186
     22 C          63.3996   82.6086   11.4947 C.3     1  UNL1        0.1516
     23 O          64.8523   82.2504   11.3873 O.3     1  UNL1       -0.3806
     24 H          65.1701   82.4533   10.4936 H       1  UNL1        0.2105
     25 C          67.1518   92.5324   14.7382 C.3     1  UNL1        0.0164
     26 C          68.6412   92.7093   14.7537 C.3     1  UNL1        0.0014
     27 C          67.7524   93.7852   15.3038 C.3     1  UNL1        0.0014
     28 S          65.8025   92.8602   12.0789 S.O2    1  UNL1        0.0632
     29 O          65.0571   93.9663   12.2874 O.2     1  UNL1       -0.1528
     30 O          66.7889   91.8403   11.5921 O.2     1  UNL1       -0.1528
     31 C          66.3347   93.8493   11.0846 C.ar    1  UNL1        0.1222
     32 C          67.2698   93.3960   10.0030 C.ar    1  UNL1        0.0208
     33 C          67.8020   94.3851    9.0087 C.ar    1  UNL1        0.0128
     34 C          67.3991   95.8273    9.0961 C.ar    1  UNL1        0.0578
     35 CL         67.9313   96.8163    8.1018 Cl      1  UNL1       -0.0822
     36 C          66.4640   96.2805   10.1778 C.ar    1  UNL1        0.0128
     37 C          65.9317   95.2915   11.1721 C.ar    1  UNL1        0.0208
@<TRIPOS>BOND
     1    19    20    1
     2    20    21    1
     3    20    22    1
     4    22    23    1
     5    20    11    1
     6    11    12    1
     7    12    13    1
     8    13    14    1
     9    14    15   am
    10    15    16    2
    11    15    10    1
    12    10     7    1
    13     1     7    1
    14     1     2    1
    15     2     3    1
    16     3     4    1
    17     4     5    1
    18     5    25    1
    19    25    26    1
    20    26    27    1
    21     5     6    1
    22     6    28    1
    23    28    29    2
    24    28    30    2
    25    28    31    1
    26    31    32   ar
    27    32    33   ar
    28    33    34   ar
    29    34    35    1
    30    34    36   ar
    31    36    37   ar
    32     7     8    1
    33     8     9    1
    34    14    17    1
    35    17    18    1
    36    18    11    1
    37     9     7    1
    38     6     1    1
    39    37    31   ar
    40    27    25    1
    41    23    24    1
@<TRIPOS>MOLECULE
*****
 37 41 0 0 0
SMALL
GASTEIGER

@<TRIPOS>ATOM
      1 C          64.0532   90.8822   12.7334 C.3     1  UNL1        0.0799
      2 C          63.5683   89.8445   13.7019 C.3     1  UNL1        0.0178
      3 C          64.3257   89.5918   14.9718 C.3     1  UNL1        0.0029
      4 C          65.5679   90.3768   15.2731 C.3     1  UNL1        0.0178
      5 C          66.0527   91.4145   14.3046 C.3     1  UNL1        0.0795
      6 N          65.2954   91.6672   13.0347 N.3     1  UNL1       -0.1583
      7 C          63.2959   91.1349   11.4635 C.3     1  UNL1        0.0237
      8 C          64.4301   91.4992   10.5519 C.3     1  UNL1        0.0019
      9 C          63.0238   91.4837   10.0302 C.3     1  UNL1        0.0019
     10 C          61.8987   90.8584   11.9340 C.3     1  UNL1        0.0866
     11 N          61.4173   86.7162    8.4901 N.3     1  UNL1       -0.2699
     12 C          60.1734   87.5386    8.3280 C.3     1  UNL1        0.0939
     13 C          59.9828   88.7799    9.1485 C.3     1  UNL1        0.1107
     14 N          61.0361   89.1985   10.1310 N.am    1  UNL1       -0.2767
     15 C          60.8455   90.4397   10.9515 C.2     1  UNL1        0.2258
     16 O          59.6015   91.2622   10.7894 O.2     1  UNL1       -0.2749
     17 C          62.2800   88.3761   10.2931 C.3     1  UNL1        0.1107
     18 C          62.4706   87.1348    9.4726 C.3     1  UNL1        0.0939
     19 C          60.2246   85.6317    7.1113 C.3     1  UNL1        0.0186
     20 C          61.6080   85.4750    7.6696 C.3     1  UNL1        0.0726
     21 C          62.9913   85.3184    8.2279 C.3     1  UNL1        0.0186
     22 C          61.7986   84.2339    6.8492 C.3     1  UNL1        0.1516
     23 O          61.1726   84.1297    5.4900 O.3     1  UNL1       -0.3806
     24 H          60.2068   84.1188    5.5788 H       1  UNL1        0.2105
     25 C          67.2949   92.1995   14.6058 C.3     1  UNL1        0.0164
     26 C          68.7909   92.3074   14.6246 C.3     1  UNL1        0.0014
     27 C          67.9503   93.4515   15.1090 C.3     1  UNL1        0.0014
     28 S          65.7802   92.7049   12.0661 S.O2    1  UNL1        0.0632
     29 O          65.0293   93.7908   12.3477 O.2     1  UNL1       -0.1528
     30 O          66.7611   91.7200   11.5020 O.2     1  UNL1       -0.1528
     31 C          66.2651   93.7425   11.0974 C.ar    1  UNL1        0.1222
     32 C          65.8152   95.1666   11.2365 C.ar    1  UNL1        0.0208
     33 C          66.3001   96.2042   10.2678 C.ar    1  UNL1        0.0128
     34 C          67.2348   95.8178    9.1601 C.ar    1  UNL1        0.0578
     35 CL         67.7196   96.8553    8.1915 Cl      1  UNL1       -0.0822
     36 C          67.6847   94.3936    9.0212 C.ar    1  UNL1        0.0128
     37 C          67.1998   93.3559    9.9898 C.ar    1  UNL1        0.0208
@<TRIPOS>BOND
     1    19    20    1
     2    20    21    1
     3    20    22    1
     4    22    23    1
     5    20    11    1
     6    11    12    1
     7    12    13    1
     8    13    14    1
     9    14    15   am
    10    15    16    2
    11    15    10    1
    12    10     7    1
    13     1     7    1
    14     1     2    1
    15     2     3    1
    16     3     4    1
    17     4     5    1
    18     5    25    1
    19    25    26    1
    20    26    27    1
    21     5     6    1
    22     6    28    1
    23    28    29    2
    24    28    30    2
    25    28    31    1
    26    31    32   ar
    27    32    33   ar
    28    33    34   ar
    29    34    35    1
    30    34    36   ar
    31    36    37   ar
    32     7     8    1
    33     8     9    1
    34    14    17    1
    35    17    18    1
    36    18    11    1
    37     9     7    1
    38     6     1    1
    39    37    31   ar
    40    27    25    1
    41    23    24    1
