@<TRIPOS>MOLECULE
*****
 57 61 0 0 0
SMALL
GASTEIGER

@<TRIPOS>ATOM
      1 C          63.0385   83.3691   14.7293 C.3     1  UNL1        0.2066
      2 O          63.1567   84.3861   15.8256 O.3     1  UNL1       -0.4483
      3 C          63.2234   85.7808   16.3738 C.2     1  UNL1        0.3235
      4 O          63.3688   85.5528   17.8493 O.2     1  UNL1       -0.2496
      5 C          63.2253   87.2768   16.2655 C.3     1  UNL1        0.1563
      6 C          63.3717   87.7147   17.6926 C.3     1  UNL1        0.0196
      7 C          63.1622   88.5780   15.5219 C.2     1  UNL1        0.1629
      8 O          63.2804   89.5950   16.6182 O.2     1  UNL1       -0.2954
      9 C          63.0464   89.4266   14.2904 C.3     1  UNL1        0.0877
     10 C          63.1131   90.8212   14.8387 C.3     1  UNL1        0.0104
     11 C          62.9010   89.6545   12.8150 C.3     1  UNL1        0.1493
     12 C          62.7547   89.2167   11.3878 C.3     1  UNL1        0.1189
     13 C          62.7789   90.7121   11.5024 C.3     1  UNL1        0.0322
     14 C          62.6365   88.1997   10.2916 C.3     1  UNL1        0.0370
     15 C          62.5698   86.8050    9.7433 C.3     1  UNL1        0.0601
     16 C          62.4243   87.0330    8.2679 C.3     1  UNL1        0.0078
     17 C          62.5678   85.3090    9.8517 C.2     1  UNL1        0.1516
     18 O          62.4215   84.8711    8.4245 O.2     1  UNL1       -0.2960
     19 C          62.6310   84.0078   10.5953 C.3     1  UNL1        0.0792
     20 C          62.5128   82.9908    9.4990 C.3     1  UNL1        0.0096
     21 C          62.7467   83.1592   11.8267 C.3     1  UNL1        0.1216
     22 N          62.6683   81.8197   11.1563 N.am    1  UNL1       -0.2683
     23 C          62.7653   80.7639   12.2173 C.2     1  UNL1        0.4016
     24 O          62.7301   79.2813   11.9918 O.2     1  UNL1       -0.2264
     25 O          62.9036   81.4509   13.5436 O.3     1  UNL1       -0.4367
     26 C          62.8922   82.9313   13.3022 C.3     1  UNL1        0.1905
     27 C          63.0121   82.1390   14.5702 C.3     1  UNL1        0.0493
     28 H          62.5704   81.6613   10.1895 H       1  UNL1        0.1528
     29 C          63.9307   80.9380   14.9383 C.3     1  UNL1        0.0040
     30 C          63.1017   82.0679   15.4729 C.3     1  UNL1        0.0474
     31 O          62.9029   91.1507   12.7066 O.3     1  UNL1       -0.3283
     32 C          64.1992   91.9041   12.7511 C.3     1  UNL1        0.2643
     33 O          64.9248   92.0720   14.0531 O.3     1  UNL1       -0.3311
     34 C          66.2211   92.8254   14.0977 C.3     1  UNL1        0.1194
     35 C          66.9466   92.9933   15.3997 C.3     1  UNL1        0.0322
     36 C          66.7917   93.4109   12.8401 C.3     1  UNL1        0.0482
     37 C          66.0662   93.2431   11.5380 C.3     1  UNL1        0.0921
     38 C          64.7699   92.4896   11.4935 C.3     1  UNL1        0.1815
     39 O          64.0444   92.3217   10.1915 O.3     1  UNL1       -0.3783
     40 H          63.2308   91.8142   10.3378 H       1  UNL1        0.2106
     41 N          66.6369   93.8286   10.2805 N.3     1  UNL1       -0.2692
     42 C          66.1813   95.1771    9.8071 C.3     1  UNL1        0.0897
     43 C          67.6630   93.0657    9.4963 C.3     1  UNL1        0.0897
     44 O          62.6261   89.8715   10.0444 O.3     1  UNL1       -0.3514
     45 C          61.3274   89.8012    9.2971 C.3     1  UNL1        0.1682
     46 C          61.1598   90.5566    8.0120 C.2     1  UNL1        0.0057
     47 C          60.1405   90.1092    7.0066 C.2     1  UNL1       -0.0005
     48 C          59.9730   90.8646    5.7215 C.ar    1  UNL1        0.0189
     49 C          58.6153   91.3505    5.3087 C.ar    1  UNL1        0.0988
     50 N          58.4478   92.1059    4.0236 N.ar    1  UNL1       -0.2438
     51 C          59.6381   92.3753    3.1513 C.ar    1  UNL1        0.0813
     52 C          59.4706   93.1306    1.8663 C.ar    1  UNL1        0.0191
     53 C          60.6608   93.4000    0.9940 C.ar    1  UNL1        0.0015
     54 C          62.0185   92.9140    1.4069 C.ar    1  UNL1        0.0001
     55 C          62.1860   92.1587    2.6919 C.ar    1  UNL1        0.0015
     56 C          60.9958   91.8893    3.5642 C.ar    1  UNL1        0.0177
     57 C          61.1633   91.1339    4.8493 C.ar    1  UNL1        0.0030
@<TRIPOS>BOND
     1    29    30    1
     2     1    30    1
     3     1     2    1
     4     2     3    1
     5     3     4    2
     6     3     5    1
     7     5     6    1
     8     5     7    1
     9     7     8    2
    10     7     9    1
    11     9    10    1
    12     9    11    1
    13    11    31    1
    14    32    31    1
    15    32    33    1
    16    33    34    1
    17    34    35    1
    18    34    36    1
    19    36    37    1
    20    37    41    1
    21    41    42    1
    22    41    43    1
    23    37    38    1
    24    38    39    1
    25    11    12    1
    26    12    13    1
    27    12    44    1
    28    44    45    1
    29    45    46    1
    30    46    47    2
    31    47    48    1
    32    48    49   ar
    33    49    50   ar
    34    50    51   ar
    35    51    52   ar
    36    52    53   ar
    37    53    54   ar
    38    54    55   ar
    39    55    56   ar
    40    56    57   ar
    41    12    14    1
    42    14    15    1
    43    15    16    1
    44    15    17    1
    45    17    18    2
    46    17    19    1
    47    19    20    1
    48    19    21    1
    49    21    22    1
    50    22    23   am
    51    23    24    2
    52    23    25    1
    53    25    26    1
    54    26    27    1
    55    26     1    1
    56    38    32    1
    57    57    48   ar
    58    26    21    1
    59    56    51   ar
    60    39    40    1
    61    22    28    1
@<TRIPOS>MOLECULE
*****
 57 61 0 0 0
SMALL
GASTEIGER

@<TRIPOS>ATOM
      1 C          63.3511   82.5741   13.8717 C.3     1  UNL1        0.2066
      2 O          63.4679   83.3967   15.1206 O.3     1  UNL1       -0.4483
      3 C          63.4973   84.6808   15.8953 C.2     1  UNL1        0.3235
      4 O          63.7067   84.2150   17.3057 O.2     1  UNL1       -0.2496
      5 C          63.4335   86.1722   16.0424 C.3     1  UNL1        0.1563
      6 C          63.6146   86.3702   17.5182 C.3     1  UNL1        0.0196
      7 C          63.2891   87.5755   15.5326 C.2     1  UNL1        0.1629
      8 O          63.4060   88.3980   16.7816 O.2     1  UNL1       -0.2954
      9 C          63.0928   88.6128   14.4670 C.3     1  UNL1        0.0877
     10 C          63.1222   89.8969   15.2417 C.3     1  UNL1        0.0104
     11 C          62.8833   89.0786   13.0566 C.3     1  UNL1        0.1493
     12 C          62.7023   88.8807   11.5808 C.3     1  UNL1        0.1189
     13 C          62.6690   90.3349   11.9468 C.3     1  UNL1        0.0322
     14 C          62.5855   88.0581   10.3319 C.3     1  UNL1        0.0370
     15 C          62.5560   86.7740    9.5571 C.3     1  UNL1        0.0601
     16 C          62.3466   87.2398    8.1467 C.3     1  UNL1        0.0078
     17 C          62.6198   85.2826    9.4101 C.2     1  UNL1        0.1516
     18 O          62.4388   85.0846    7.9343 O.2     1  UNL1       -0.2960
     19 C          62.7642   83.8793    9.9199 C.3     1  UNL1        0.0792
     20 C          62.6474   83.0568    8.6709 C.3     1  UNL1        0.0096
     21 C          62.9605   82.8420   10.9855 C.3     1  UNL1        0.1216
     22 N          62.9126   81.6322   10.1000 N.am    1  UNL1       -0.2683
     23 C          63.0924   80.4187   10.9632 C.2     1  UNL1        0.4016
     24 O          63.1100   78.9952   10.4905 O.2     1  UNL1       -0.2264
     25 O          63.2515   80.8785   12.3821 O.3     1  UNL1       -0.4367
     26 C          63.1700   82.3762   12.3959 C.3     1  UNL1        0.1905
     27 C          63.3695   81.3885   13.5069 C.3     1  UNL1        0.0493
     28 H          62.7854   81.6342    9.1238 H       1  UNL1        0.1528
     29 C          62.3736   80.1905   14.2074 C.3     1  UNL1        0.0040
     30 C          63.4954   81.1709   14.3815 C.3     1  UNL1        0.0474
     31 O          62.8195   90.5700   13.2036 O.3     1  UNL1       -0.3283
     32 C          64.0276   91.4059   12.9002 C.3     1  UNL1        0.2643
     33 O          64.1439   92.1035   11.5775 O.3     1  UNL1       -0.3311
     34 C          65.3519   92.9393   11.2741 C.3     1  UNL1        0.1194
     35 C          65.4682   93.6369    9.9513 C.3     1  UNL1        0.0322
     36 C          66.4435   93.0775   12.2934 C.3     1  UNL1        0.0482
     37 C          66.3272   92.3799   13.6163 C.3     1  UNL1        0.0921
     38 C          65.1192   91.5441   13.9197 C.3     1  UNL1        0.1815
     39 O          65.0029   90.8464   15.2424 O.3     1  UNL1       -0.3783
     40 H          64.1683   90.3532   15.2755 H       1  UNL1        0.2106
     41 N          67.4188   92.5181   14.6356 N.3     1  UNL1       -0.2692
     42 C          68.8109   92.0635   14.3102 C.3     1  UNL1        0.0897
     43 C          67.1186   93.1107   15.9805 C.3     1  UNL1        0.0897
     44 O          62.4969   89.7453   10.3724 O.3     1  UNL1       -0.3514
     45 C          61.1875   89.7137    9.6414 C.3     1  UNL1        0.1682
     46 C          61.0309   90.4621    8.3508 C.2     1  UNL1        0.0057
     47 C          60.0835   89.9589    7.3024 C.2     1  UNL1       -0.0005
     48 C          59.9268   90.7073    6.0118 C.ar    1  UNL1        0.0189
     49 C          58.5690   91.1693    5.5728 C.ar    1  UNL1        0.0988
     50 N          58.4125   91.9176    4.2822 N.ar    1  UNL1       -0.2438
     51 C          59.6138   92.2040    3.4307 C.ar    1  UNL1        0.0813
     52 C          59.4572   92.9523    2.1403 C.ar    1  UNL1        0.0191
     53 C          60.6585   93.2387    1.2888 C.ar    1  UNL1        0.0015
     54 C          62.0163   92.7767    1.7279 C.ar    1  UNL1        0.0001
     55 C          62.1729   92.0284    3.0184 C.ar    1  UNL1        0.0015
     56 C          60.9716   91.7420    3.8699 C.ar    1  UNL1        0.0177
     57 C          61.1282   90.9936    5.1604 C.ar    1  UNL1        0.0030
@<TRIPOS>BOND
     1    29    30    1
     2     1    30    1
     3     1     2    1
     4     2     3    1
     5     3     4    2
     6     3     5    1
     7     5     6    1
     8     5     7    1
     9     7     8    2
    10     7     9    1
    11     9    10    1
    12     9    11    1
    13    11    31    1
    14    32    31    1
    15    32    33    1
    16    33    34    1
    17    34    35    1
    18    34    36    1
    19    36    37    1
    20    37    41    1
    21    41    42    1
    22    41    43    1
    23    37    38    1
    24    38    39    1
    25    11    12    1
    26    12    13    1
    27    12    44    1
    28    44    45    1
    29    45    46    1
    30    46    47    2
    31    47    48    1
    32    48    49   ar
    33    49    50   ar
    34    50    51   ar
    35    51    52   ar
    36    52    53   ar
    37    53    54   ar
    38    54    55   ar
    39    55    56   ar
    40    56    57   ar
    41    12    14    1
    42    14    15    1
    43    15    16    1
    44    15    17    1
    45    17    18    2
    46    17    19    1
    47    19    20    1
    48    19    21    1
    49    21    22    1
    50    22    23   am
    51    23    24    2
    52    23    25    1
    53    25    26    1
    54    26    27    1
    55    26     1    1
    56    38    32    1
    57    57    48   ar
    58    26    21    1
    59    56    51   ar
    60    39    40    1
    61    22    28    1
