@<TRIPOS>MOLECULE
*****
 25 28 0 0 0
SMALL
GASTEIGER

@<TRIPOS>ATOM
      1 C          66.0166   93.8219   11.5576 C.ar    1  UNL1        0.0701
      2 C          66.7495   93.7655   12.8651 C.ar    1  UNL1        0.0801
      3 N          66.4716   92.6541   13.8334 N.ar    1  UNL1       -0.3277
      4 C          65.4606   91.5990   13.4941 C.ar    1  UNL1        0.0643
      5 C          65.1827   90.4877   14.4624 C.ar    1  UNL1        0.0341
      6 C          64.1718   89.4327   14.1231 C.ar    1  UNL1        0.0772
      7 C          63.4389   89.4892   12.8155 C.ar    1  UNL1        0.1535
      8 F          62.4280   88.4341   12.4763 F       1  UNL1       -0.2029
      9 C          63.7168   90.6005   11.8473 C.ar    1  UNL1        0.0355
     10 C          64.7277   91.6555   12.1866 C.ar    1  UNL1        0.0571
     11 C          65.0057   92.7669   11.2183 C.ar    1  UNL1        0.1996
     12 O          64.2728   92.8234    9.9108 O.2     1  UNL1       -0.2864
     13 N          63.8938   88.3213   15.0913 N.pl3   1  UNL1       -0.3029
     14 C          64.3252   86.9211   14.7698 C.3     1  UNL1        0.1079
     15 C          64.0472   85.8096   15.7380 C.3     1  UNL1        0.0903
     16 N          63.3379   86.0984   17.0278 N.3     1  UNL1       -0.2946
     17 C          62.9065   87.4986   17.3493 C.3     1  UNL1        0.0903
     18 C          63.1845   88.6100   16.3810 C.3     1  UNL1        0.1079
     19 H          63.9609   85.8023   17.7791 H       1  UNL1        0.1233
     20 O          65.2653   95.9990   10.3552 O.co2   1  UNL1       -0.5444
     21 C          66.2946   94.9333   10.5894 C.2     1  UNL1        0.0774
     22 O          67.6019   94.9791    9.8553 O.co2   1  UNL1       -0.5444
     23 C          67.2045   92.5976   15.1409 C.3     1  UNL1        0.0856
     24 C          67.2075   92.7290   16.6351 C.3     1  UNL1        0.0245
     25 C          68.4709   92.3686   15.9114 C.3     1  UNL1        0.0245
@<TRIPOS>UNITY_ATOM_ATTR
20 1
charge -1
@<TRIPOS>BOND
     1    20    21   ar
     2    21    22   ar
     3    21     1    1
     4     1     2   ar
     5     2     3   ar
     6     3    23    1
     7    23    24    1
     8    24    25    1
     9     3     4   ar
    10     4     5   ar
    11     5     6   ar
    12     6    13    1
    13    13    14    1
    14    14    15    1
    15    15    16    1
    16    16    17    1
    17    17    18    1
    18     6     7   ar
    19     7     8    1
    20     7     9   ar
    21     9    10   ar
    22    10    11   ar
    23    11    12    2
    24    11     1   ar
    25    25    23    1
    26    10     4   ar
    27    18    13    1
    28    16    19    1
@<TRIPOS>MOLECULE
*****
 25 28 0 0 0
SMALL
GASTEIGER

@<TRIPOS>ATOM
      1 C          63.6077   89.4877   12.6530 C.ar    1  UNL1        0.0701
      2 C          62.8156   88.9890   11.4809 C.ar    1  UNL1        0.0801
      3 N          62.4934   87.5290   11.3600 N.ar    1  UNL1       -0.3277
      4 C          62.9632   86.5677   12.4114 C.ar    1  UNL1        0.0643
      5 C          62.6410   85.1077   12.2906 C.ar    1  UNL1        0.0341
      6 C          63.1109   84.1466   13.3419 C.ar    1  UNL1        0.0772
      7 C          63.9030   84.6453   14.5140 C.ar    1  UNL1        0.1535
      8 F          64.3728   83.6840   15.5653 F       1  UNL1       -0.2029
      9 C          64.2252   86.1053   14.6348 C.ar    1  UNL1        0.0355
     10 C          63.7553   87.0665   13.5835 C.ar    1  UNL1        0.0571
     11 C          64.0776   88.5265   13.7043 C.ar    1  UNL1        0.1996
     12 O          64.8696   89.0253   14.8764 O.2     1  UNL1       -0.2864
     13 N          62.7886   82.6865   13.2211 N.pl3   1  UNL1       -0.3029
     14 C          63.2654   81.9093   12.0301 C.3     1  UNL1        0.1079
     15 C          62.9433   80.4493   11.9093 C.3     1  UNL1        0.0903
     16 N          62.1442   79.7665   12.9795 N.3     1  UNL1       -0.2946
     17 C          61.6675   80.5437   14.1706 C.3     1  UNL1        0.0903
     18 C          61.9897   82.0038   14.2914 C.3     1  UNL1        0.1079
     19 H          62.7209   79.0047   13.3367 H       1  UNL1        0.1233
     20 O          63.7104   91.6590   14.0760 O.co2   1  UNL1       -0.5444
     21 C          63.9299   90.9478   12.7737 C.2     1  UNL1        0.0774
     22 O          64.4716   91.6965   11.5922 O.co2   1  UNL1       -0.5444
     23 C          61.7013   87.0302   10.1879 C.3     1  UNL1        0.0856
     24 C          60.4075   86.9524    9.4330 C.3     1  UNL1        0.0245
     25 C          61.6232   86.2442    8.9128 C.3     1  UNL1        0.0245
@<TRIPOS>UNITY_ATOM_ATTR
20 1
charge -1
@<TRIPOS>BOND
     1    20    21   ar
     2    21    22   ar
     3    21     1    1
     4     1     2   ar
     5     2     3   ar
     6     3    23    1
     7    23    24    1
     8    24    25    1
     9     3     4   ar
    10     4     5   ar
    11     5     6   ar
    12     6    13    1
    13    13    14    1
    14    14    15    1
    15    15    16    1
    16    16    17    1
    17    17    18    1
    18     6     7   ar
    19     7     8    1
    20     7     9   ar
    21     9    10   ar
    22    10    11   ar
    23    11    12    2
    24    11     1   ar
    25    25    23    1
    26    10     4   ar
    27    18    13    1
    28    16    19    1
@<TRIPOS>MOLECULE
*****
 25 28 0 0 0
SMALL
GASTEIGER

@<TRIPOS>ATOM
      1 C          65.9662   91.8178   14.4300 C.ar    1  UNL1        0.0701
      2 C          65.5866   90.4919   15.0198 C.ar    1  UNL1        0.0801
      3 N          64.6591   89.5778   14.2755 N.ar    1  UNL1       -0.3277
      4 C          64.1110   89.9897   12.9413 C.ar    1  UNL1        0.0643
      5 C          63.1834   89.0756   12.1970 C.ar    1  UNL1        0.0341
      6 C          62.6354   89.4874   10.8628 C.ar    1  UNL1        0.0772
      7 C          63.0150   90.8134   10.2730 C.ar    1  UNL1        0.1535
      8 F          62.4669   91.2252    8.9388 F       1  UNL1       -0.2029
      9 C          63.9425   91.7274   11.0173 C.ar    1  UNL1        0.0355
     10 C          64.4906   91.3156   12.3515 C.ar    1  UNL1        0.0571
     11 C          65.4182   92.2297   13.0959 C.ar    1  UNL1        0.1996
     12 O          65.7977   93.5556   12.5060 O.2     1  UNL1       -0.2864
     13 N          61.7078   88.5734   10.1184 N.pl3   1  UNL1       -0.3029
     14 C          62.0484   87.1204    9.9669 C.3     1  UNL1        0.1079
     15 C          61.1208   86.2063    9.2225 C.3     1  UNL1        0.0903
     16 N          59.8526   86.7452    8.6297 N.3     1  UNL1       -0.2946
     17 C          59.5121   88.1981    8.7812 C.3     1  UNL1        0.0903
     18 C          60.4397   89.1122    9.5256 C.3     1  UNL1        0.1079
     19 H          59.0855   86.2179    9.0465 H       1  UNL1        0.1233
     20 O          66.5921   93.1132   16.5934 O.co2   1  UNL1       -0.5444
     21 C          66.8938   92.7319   15.1744 C.2     1  UNL1        0.0774
     22 O          68.1231   93.2646   14.4998 O.co2   1  UNL1       -0.5444
     23 C          64.2795   88.2519   14.8654 C.3     1  UNL1        0.0856
     24 C          64.3126   86.7530   14.8206 C.3     1  UNL1        0.0245
     25 C          63.5891   87.4544   15.9317 C.3     1  UNL1        0.0245
@<TRIPOS>UNITY_ATOM_ATTR
20 1
charge -1
@<TRIPOS>BOND
     1    20    21   ar
     2    21    22   ar
     3    21     1    1
     4     1     2   ar
     5     2     3   ar
     6     3    23    1
     7    23    24    1
     8    24    25    1
     9     3     4   ar
    10     4     5   ar
    11     5     6   ar
    12     6    13    1
    13    13    14    1
    14    14    15    1
    15    15    16    1
    16    16    17    1
    17    17    18    1
    18     6     7   ar
    19     7     8    1
    20     7     9   ar
    21     9    10   ar
    22    10    11   ar
    23    11    12    2
    24    11     1   ar
    25    25    23    1
    26    10     4   ar
    27    18    13    1
    28    16    19    1
@<TRIPOS>MOLECULE
*****
 25 28 0 0 0
SMALL
GASTEIGER

@<TRIPOS>ATOM
      1 C          64.8606   90.5438   14.2810 C.ar    1  UNL1        0.0701
      2 C          64.7553   89.0778   14.5806 C.ar    1  UNL1        0.0801
      3 N          64.0110   88.1725   13.6445 N.ar    1  UNL1       -0.3277
      4 C          63.3719   88.7333   12.4086 C.ar    1  UNL1        0.0643
      5 C          62.6276   87.8280   11.4725 C.ar    1  UNL1        0.0341
      6 C          61.9886   88.3887   10.2367 C.ar    1  UNL1        0.0772
      7 C          62.0939   89.8547    9.9370 C.ar    1  UNL1        0.1535
      8 F          61.4549   90.4154    8.7012 F       1  UNL1       -0.2029
      9 C          62.8383   90.7600   10.8732 C.ar    1  UNL1        0.0355
     10 C          63.4772   90.1992   12.1090 C.ar    1  UNL1        0.0571
     11 C          64.2216   91.1045   13.0452 C.ar    1  UNL1        0.1996
     12 O          64.3269   92.5705   12.7456 O.2     1  UNL1       -0.2864
     13 N          61.2442   87.4835    9.3004 N.pl3   1  UNL1       -0.3029
     14 C          61.9609   86.3547    8.6204 C.3     1  UNL1        0.1079
     15 C          61.2166   85.4495    7.6842 C.3     1  UNL1        0.0903
     16 N          59.7556   85.6729    7.4280 N.3     1  UNL1       -0.2946
     17 C          59.0389   86.8016    8.1080 C.3     1  UNL1        0.0903
     18 C          59.7833   87.7069    9.0442 C.3     1  UNL1        0.1079
     19 H          59.2748   84.8144    7.6968 H       1  UNL1        0.1233
     20 O          67.1005   91.5385   15.1434 O.co2   1  UNL1       -0.5444
     21 C          65.6050   91.4491   15.2173 C.2     1  UNL1        0.0774
     22 O          64.8538   92.2649   16.2273 O.co2   1  UNL1       -0.5444
     23 C          63.9056   86.7065   13.9441 C.3     1  UNL1        0.0856
     24 C          64.0690   85.5607   14.8981 C.3     1  UNL1        0.0245
     25 C          63.5598   85.3133   13.5091 C.3     1  UNL1        0.0245
@<TRIPOS>UNITY_ATOM_ATTR
20 1
charge -1
@<TRIPOS>BOND
     1    20    21   ar
     2    21    22   ar
     3    21     1    1
     4     1     2   ar
     5     2     3   ar
     6     3    23    1
     7    23    24    1
     8    24    25    1
     9     3     4   ar
    10     4     5   ar
    11     5     6   ar
    12     6    13    1
    13    13    14    1
    14    14    15    1
    15    15    16    1
    16    16    17    1
    17    17    18    1
    18     6     7   ar
    19     7     8    1
    20     7     9   ar
    21     9    10   ar
    22    10    11   ar
    23    11    12    2
    24    11     1   ar
    25    25    23    1
    26    10     4   ar
    27    18    13    1
    28    16    19    1
@<TRIPOS>MOLECULE
*****
 25 28 0 0 0
SMALL
GASTEIGER

@<TRIPOS>ATOM
      1 C          60.6298   86.8273    9.0588 C.ar    1  UNL1        0.0701
      2 C          61.2211   85.9586   10.1293 C.ar    1  UNL1        0.0801
      3 N          62.0773   86.5662   11.2005 N.ar    1  UNL1       -0.3277
      4 C          62.3424   88.0427   11.2013 C.ar    1  UNL1        0.0643
      5 C          63.1987   88.6503   12.2725 C.ar    1  UNL1        0.0341
      6 C          63.4637   90.1267   12.2733 C.ar    1  UNL1        0.0772
      7 C          62.8725   90.9954   11.2029 C.ar    1  UNL1        0.1535
      8 F          63.1376   92.4719   11.2038 F       1  UNL1       -0.2029
      9 C          62.0162   90.3878   10.1317 C.ar    1  UNL1        0.0355
     10 C          61.7512   88.9114   10.1309 C.ar    1  UNL1        0.0571
     11 C          60.8949   88.3037    9.0597 C.ar    1  UNL1        0.1996
     12 O          60.3037   89.1724    7.9892 O.2     1  UNL1       -0.2864
     13 N          64.3200   90.7344   13.3446 N.pl3   1  UNL1       -0.3029
     14 C          63.8434   90.7501   14.7668 C.3     1  UNL1        0.1079
     15 C          64.6996   91.3578   15.8380 C.3     1  UNL1        0.0903
     16 N          66.0325   91.9498   15.4871 N.3     1  UNL1       -0.2946
     17 C          66.5091   91.9340   14.0649 C.3     1  UNL1        0.0903
     18 C          65.6528   91.3263   12.9936 C.3     1  UNL1        0.1079
     19 H          66.7308   91.4497   16.0372 H       1  UNL1        0.1233
     20 O          60.3528   85.1990    7.0534 O.co2   1  UNL1       -0.5444
     21 C          59.7735   86.2196    7.9876 C.2     1  UNL1        0.0774
     22 O          58.3380   86.6326    7.8506 O.co2   1  UNL1       -0.5444
     23 C          62.6685   85.6975   12.2709 C.3     1  UNL1        0.0856
     24 C          63.5625   85.5332   13.4641 C.3     1  UNL1        0.0245
     25 C          62.7986   84.3572   12.9316 C.3     1  UNL1        0.0245
@<TRIPOS>UNITY_ATOM_ATTR
20 1
charge -1
@<TRIPOS>BOND
     1    20    21   ar
     2    21    22   ar
     3    21     1    1
     4     1     2   ar
     5     2     3   ar
     6     3    23    1
     7    23    24    1
     8    24    25    1
     9     3     4   ar
    10     4     5   ar
    11     5     6   ar
    12     6    13    1
    13    13    14    1
    14    14    15    1
    15    15    16    1
    16    16    17    1
    17    17    18    1
    18     6     7   ar
    19     7     8    1
    20     7     9   ar
    21     9    10   ar
    22    10    11   ar
    23    11    12    2
    24    11     1   ar
    25    25    23    1
    26    10     4   ar
    27    18    13    1
    28    16    19    1
@<TRIPOS>MOLECULE
*****
 25 28 0 0 0
SMALL
GASTEIGER

@<TRIPOS>ATOM
      1 C          62.9442   82.2140   12.7282 C.ar    1  UNL1        0.0701
      2 C          62.7466   82.8757   11.3966 C.ar    1  UNL1        0.0801
      3 N          62.8982   84.3625   11.2680 N.ar    1  UNL1       -0.3277
      4 C          63.2473   85.1876   12.4711 C.ar    1  UNL1        0.0643
      5 C          63.3989   86.6744   12.3425 C.ar    1  UNL1        0.0341
      6 C          63.7480   87.4994   13.5456 C.ar    1  UNL1        0.0772
      7 C          63.9456   86.8377   14.8772 C.ar    1  UNL1        0.1535
      8 F          64.2947   87.6629   16.0802 F       1  UNL1       -0.2029
      9 C          63.7940   85.3510   15.0057 C.ar    1  UNL1        0.0355
     10 C          63.4449   84.5259   13.8027 C.ar    1  UNL1        0.0571
     11 C          63.2933   83.0391   13.9312 C.ar    1  UNL1        0.1996
     12 O          63.4908   82.3774   15.2628 O.2     1  UNL1       -0.2864
     13 N          63.8996   88.9862   13.4170 N.pl3   1  UNL1       -0.3029
     14 C          63.2712   89.7071   12.2614 C.3     1  UNL1        0.1079
     15 C          63.4227   91.1938   12.1328 C.3     1  UNL1        0.0903
     16 N          64.2028   91.9598   13.1599 N.3     1  UNL1       -0.2946
     17 C          64.8312   91.2390   14.3156 C.3     1  UNL1        0.0903
     18 C          64.6796   89.7522   14.4441 C.3     1  UNL1        0.1079
     19 H          63.5675   92.6529   13.5555 H       1  UNL1        0.1233
     20 O          62.6908   80.0983   14.2147 O.co2   1  UNL1       -0.5444
     21 C          62.7926   80.7272   12.8567 C.2     1  UNL1        0.0774
     22 O          62.7427   79.8694   11.6273 O.co2   1  UNL1       -0.5444
     23 C          62.7006   85.0241    9.9364 C.3     1  UNL1        0.0856
     24 C          61.9437   85.9761    9.0585 C.3     1  UNL1        0.0245
     25 C          63.1153   85.2182    8.5081 C.3     1  UNL1        0.0245
@<TRIPOS>UNITY_ATOM_ATTR
20 1
charge -1
@<TRIPOS>BOND
     1    20    21   ar
     2    21    22   ar
     3    21     1    1
     4     1     2   ar
     5     2     3   ar
     6     3    23    1
     7    23    24    1
     8    24    25    1
     9     3     4   ar
    10     4     5   ar
    11     5     6   ar
    12     6    13    1
    13    13    14    1
    14    14    15    1
    15    15    16    1
    16    16    17    1
    17    17    18    1
    18     6     7   ar
    19     7     8    1
    20     7     9   ar
    21     9    10   ar
    22    10    11   ar
    23    11    12    2
    24    11     1   ar
    25    25    23    1
    26    10     4   ar
    27    18    13    1
    28    16    19    1
@<TRIPOS>MOLECULE
*****
 25 28 0 0 0
SMALL
GASTEIGER

@<TRIPOS>ATOM
      1 C          61.6751   87.4522   10.5108 C.ar    1  UNL1        0.0701
      2 C          62.2544   86.6622   11.6467 C.ar    1  UNL1        0.0801
      3 N          63.1908   87.3195   12.6167 N.ar    1  UNL1       -0.3277
      4 C          63.5480   88.7669   12.4508 C.ar    1  UNL1        0.0643
      5 C          64.4845   89.4242   13.4208 C.ar    1  UNL1        0.0341
      6 C          64.8416   90.8716   13.2549 C.ar    1  UNL1        0.0772
      7 C          64.2623   91.6616   12.1190 C.ar    1  UNL1        0.1535
      8 F          64.6195   93.1090   11.9532 F       1  UNL1       -0.2029
      9 C          63.3259   91.0043   11.1490 C.ar    1  UNL1        0.0355
     10 C          62.9687   89.5569   11.3149 C.ar    1  UNL1        0.0571
     11 C          62.0322   88.8995   10.3449 C.ar    1  UNL1        0.1996
     12 O          61.4529   89.6896    9.2090 O.2     1  UNL1       -0.2864
     13 N          65.7781   91.5290   14.2250 N.pl3   1  UNL1       -0.3029
     14 C          65.2823   91.9542   15.5753 C.3     1  UNL1        0.1079
     15 C          66.2187   92.6116   16.5453 C.3     1  UNL1        0.0903
     16 N          67.6510   92.8437   16.1650 N.3     1  UNL1       -0.2946
     17 C          68.1469   92.4185   14.8147 C.3     1  UNL1        0.0903
     18 C          67.2104   91.7611   13.8447 C.3     1  UNL1        0.1079
     19 H          68.2218   92.3558   16.8553 H       1  UNL1        0.1233
     20 O          59.3390   87.3106    9.3826 O.co2   1  UNL1       -0.5444
     21 C          60.7386   86.7948    9.5408 C.2     1  UNL1        0.0774
     22 O          61.2017   85.6215    8.7290 O.co2   1  UNL1       -0.5444
     23 C          63.7701   86.5294   13.7526 C.3     1  UNL1        0.0856
     24 C          64.2770   86.4622   15.1627 C.3     1  UNL1        0.0245
     25 C          64.2666   85.2283   14.3099 C.3     1  UNL1        0.0245
@<TRIPOS>UNITY_ATOM_ATTR
20 1
charge -1
@<TRIPOS>BOND
     1    20    21   ar
     2    21    22   ar
     3    21     1    1
     4     1     2   ar
     5     2     3   ar
     6     3    23    1
     7    23    24    1
     8    24    25    1
     9     3     4   ar
    10     4     5   ar
    11     5     6   ar
    12     6    13    1
    13    13    14    1
    14    14    15    1
    15    15    16    1
    16    16    17    1
    17    17    18    1
    18     6     7   ar
    19     7     8    1
    20     7     9   ar
    21     9    10   ar
    22    10    11   ar
    23    11    12    2
    24    11     1   ar
    25    25    23    1
    26    10     4   ar
    27    18    13    1
    28    16    19    1
@<TRIPOS>MOLECULE
*****
 25 28 0 0 0
SMALL
GASTEIGER

@<TRIPOS>ATOM
      1 C          63.0449   89.8904   15.1801 C.ar    1  UNL1        0.0701
      2 C          62.6646   89.6017   13.7582 C.ar    1  UNL1        0.0801
      3 N          63.2997   90.3742   12.6403 N.ar    1  UNL1       -0.3277
      4 C          64.3153   91.4355   12.9444 C.ar    1  UNL1        0.0643
      5 C          64.9505   92.2081   11.8265 C.ar    1  UNL1        0.0341
      6 C          65.9660   93.2693   12.1306 C.ar    1  UNL1        0.0772
      7 C          66.3463   93.5580   13.5526 C.ar    1  UNL1        0.1535
      8 F          67.3618   94.6193   13.8567 F       1  UNL1       -0.2029
      9 C          65.7111   92.7854   14.6705 C.ar    1  UNL1        0.0355
     10 C          64.6956   91.7242   14.3664 C.ar    1  UNL1        0.0571
     11 C          64.0604   90.9516   15.4843 C.ar    1  UNL1        0.1996
     12 O          64.4407   91.2403   16.9062 O.2     1  UNL1       -0.2864
     13 N          66.6012   94.0419   11.0127 N.pl3   1  UNL1       -0.3029
     14 C          66.4241   95.5293   10.9337 C.3     1  UNL1        0.1079
     15 C          67.0593   96.3019    9.8159 C.3     1  UNL1        0.0903
     16 N          67.8716   95.5871    8.7770 N.3     1  UNL1       -0.2946
     17 C          68.0487   94.0997    8.8560 C.3     1  UNL1        0.0903
     18 C          67.4135   93.3271    9.9739 C.3     1  UNL1        0.1079
     19 H          68.8056   95.9965    8.8004 H       1  UNL1        0.1233
     20 O          63.2681   88.3821   17.2838 O.co2   1  UNL1       -0.5444
     21 C          62.4096   89.1178   16.2980 C.2     1  UNL1        0.0774
     22 O          60.9159   89.0809   16.4301 O.co2   1  UNL1       -0.5444
     23 C          62.9194   90.0856   11.2183 C.3     1  UNL1        0.0856
     24 C          62.4648   89.1181   10.1660 C.3     1  UNL1        0.0245
     25 C          62.7154   90.5530    9.8077 C.3     1  UNL1        0.0245
@<TRIPOS>UNITY_ATOM_ATTR
20 1
charge -1
@<TRIPOS>BOND
     1    20    21   ar
     2    21    22   ar
     3    21     1    1
     4     1     2   ar
     5     2     3   ar
     6     3    23    1
     7    23    24    1
     8    24    25    1
     9     3     4   ar
    10     4     5   ar
    11     5     6   ar
    12     6    13    1
    13    13    14    1
    14    14    15    1
    15    15    16    1
    16    16    17    1
    17    17    18    1
    18     6     7   ar
    19     7     8    1
    20     7     9   ar
    21     9    10   ar
    22    10    11   ar
    23    11    12    2
    24    11     1   ar
    25    25    23    1
    26    10     4   ar
    27    18    13    1
    28    16    19    1
@<TRIPOS>MOLECULE
*****
 25 28 0 0 0
SMALL
GASTEIGER

@<TRIPOS>ATOM
      1 C          60.2065   92.3920    3.2674 C.ar    1  UNL1        0.0701
      2 C          59.3929   93.1960    2.2970 C.ar    1  UNL1        0.0801
      3 N          60.0626   93.8770    1.1405 N.ar    1  UNL1       -0.3277
      4 C          61.5459   93.7540    0.9542 C.ar    1  UNL1        0.0643
      5 C          62.2156   94.4350   -0.2024 C.ar    1  UNL1        0.0341
      6 C          63.6989   94.3120   -0.3886 C.ar    1  UNL1        0.0772
      7 C          64.5125   93.5079    0.5818 C.ar    1  UNL1        0.1535
      8 F          65.9958   93.3849    0.3955 F       1  UNL1       -0.2029
      9 C          63.8428   92.8269    1.7383 C.ar    1  UNL1        0.0355
     10 C          62.3595   92.9500    1.9245 C.ar    1  UNL1        0.0571
     11 C          61.6897   92.2689    3.0811 C.ar    1  UNL1        0.1996
     12 O          62.5033   91.4648    4.0515 O.2     1  UNL1       -0.2864
     13 N          64.3687   94.9930   -1.5452 N.pl3   1  UNL1       -0.3029
     14 C          65.2615   96.1743   -1.3053 C.3     1  UNL1        0.1079
     15 C          65.9312   96.8553   -2.4618 C.3     1  UNL1        0.0903
     16 N          65.7082   96.3551   -3.8583 N.3     1  UNL1       -0.2946
     17 C          64.8153   95.1739   -4.0982 C.3     1  UNL1        0.0903
     18 C          64.1456   94.4928   -2.9416 C.3     1  UNL1        0.1079
     19 H          66.6248   96.1125   -4.2341 H       1  UNL1        0.1233
     20 O          58.1698   92.1466    4.8617 O.co2   1  UNL1       -0.5444
     21 C          59.5367   91.7109    4.4240 C.2     1  UNL1        0.0774
     22 O          60.2340   90.5942    5.1429 O.co2   1  UNL1       -0.5444
     23 C          59.2490   94.6811    0.1701 C.3     1  UNL1        0.0856
     24 C          58.7867   96.0103   -0.3489 C.3     1  UNL1        0.0245
     25 C          58.3022   94.7445   -0.9915 C.3     1  UNL1        0.0245
@<TRIPOS>UNITY_ATOM_ATTR
20 1
charge -1
@<TRIPOS>BOND
     1    20    21   ar
     2    21    22   ar
     3    21     1    1
     4     1     2   ar
     5     2     3   ar
     6     3    23    1
     7    23    24    1
     8    24    25    1
     9     3     4   ar
    10     4     5   ar
    11     5     6   ar
    12     6    13    1
    13    13    14    1
    14    14    15    1
    15    15    16    1
    16    16    17    1
    17    17    18    1
    18     6     7   ar
    19     7     8    1
    20     7     9   ar
    21     9    10   ar
    22    10    11   ar
    23    11    12    2
    24    11     1   ar
    25    25    23    1
    26    10     4   ar
    27    18    13    1
    28    16    19    1
