@<TRIPOS>MOLECULE
*****
 36 39 0 0 0
SMALL
GASTEIGER

@<TRIPOS>ATOM
      1 N          63.2699   90.3897   12.0971 N.am    1  UNL1       -0.2781
      2 C          62.1887   90.9441   11.2175 C.3     1  UNL1        0.0957
      3 C          61.3064   89.8070   10.7950 C.3     1  UNL1        0.0504
      4 C          61.8423   88.5498   11.4133 C.3     1  UNL1        0.1495
      5 C          63.0558   88.9100   12.2181 C.2     1  UNL1        0.2435
      6 O          63.9060   87.9576   13.0056 O.2     1  UNL1       -0.2731
      7 C          66.5756   92.7508   14.0329 C.3     1  UNL1        0.0558
      8 C          66.1020   93.1129   12.6564 C.3     1  UNL1        0.0175
      9 C          65.0001   92.3258   12.0112 C.3     1  UNL1        0.0229
     10 C          64.3718   91.1767   12.7424 C.3     1  UNL1        0.0933
     11 C          64.8453   90.8147   14.1189 C.3     1  UNL1        0.0910
     12 C          65.9472   91.6017   14.7641 C.3     1  UNL1        0.0370
     13 N          64.2170   89.6656   14.8501 N.am    1  UNL1       -0.3043
     14 C          63.4829   89.9061   16.1359 C.2     1  UNL1        0.2230
     15 C          62.8545   88.7570   16.8671 C.3     1  UNL1        0.0946
     16 O          63.3771   91.2958   16.6904 O.2     1  UNL1       -0.2751
     17 H          64.2864   88.7534   14.4861 H       1  UNL1        0.1494
     18 C          68.6969   92.8419   15.5302 C.3     1  UNL1        0.0858
     19 N          67.6775   93.5380   14.6781 N.3     1  UNL1       -0.2973
     20 H          68.1885   94.0001   13.9260 H       1  UNL1        0.1232
     21 N          61.2658   87.1741   11.2547 N.pl3   1  UNL1       -0.3122
     22 H          60.4985   86.8955   11.8051 H       1  UNL1        0.1486
     23 C          61.8585   86.2230   10.2576 C.ar    1  UNL1        0.1319
     24 N          61.6076   86.4203    8.7920 N.ar    1  UNL1       -0.2092
     25 C          62.2002   85.4691    7.7950 C.ar    1  UNL1        0.2000
     26 N          63.0437   84.3207    8.2636 N.ar    1  UNL1       -0.2239
     27 C          63.2946   84.1234    9.7292 C.ar    1  UNL1        0.0857
     28 C          64.1382   82.9750   10.1978 C.ar    1  UNL1        0.0192
     29 C          64.3891   82.7777   11.6634 C.ar    1  UNL1        0.0054
     30 C          63.7964   83.7289   12.6605 C.ar    1  UNL1        0.0716
     31 C          62.9529   84.8773   12.1919 C.ar    1  UNL1        0.0081
     32 C          62.7020   85.0746   10.7262 C.ar    1  UNL1        0.0491
     33 C          64.0473   83.5316   14.1261 C.3     1  UNL1        0.4186
     34 F          64.2983   83.3343   15.5918 F       1  UNL1       -0.1659
     35 F          62.7361   82.8146   14.2541 F       1  UNL1       -0.1659
     36 F          65.3586   84.2486   13.9982 F       1  UNL1       -0.1659
@<TRIPOS>BOND
     1    18    19    1
     2     7    19    1
     3     7     8    1
     4     8     9    1
     5     9    10    1
     6    10     1    1
     7     1     2    1
     8     2     3    1
     9     3     4    1
    10     4    21    1
    11    21    23    1
    12    23    24   ar
    13    24    25   ar
    14    25    26   ar
    15    26    27   ar
    16    27    28   ar
    17    28    29   ar
    18    29    30   ar
    19    30    33    1
    20    33    34    1
    21    33    35    1
    22    33    36    1
    23    30    31   ar
    24    31    32   ar
    25     4     5    1
    26     5     6    2
    27    10    11    1
    28    11    13    1
    29    13    14   am
    30    14    15    1
    31    14    16    2
    32    11    12    1
    33    12     7    1
    34     5     1   am
    35    32    23   ar
    36    32    27   ar
    37    19    20    1
    38    21    22    1
    39    13    17    1
@<TRIPOS>MOLECULE
*****
 36 39 0 0 0
SMALL
GASTEIGER

@<TRIPOS>ATOM
      1 N          63.9435   90.6097   12.5081 N.am    1  UNL1       -0.2781
      2 C          63.4602   91.0458   11.1567 C.3     1  UNL1        0.0957
      3 C          62.5894   89.9574   10.6024 C.3     1  UNL1        0.0504
      4 C          62.5344   88.8487   11.6112 C.3     1  UNL1        0.1495
      5 C          63.3713   89.2518   12.7890 C.2     1  UNL1        0.2435
      6 O          63.5965   88.4397   14.0299 O.2     1  UNL1       -0.2731
      7 C          66.6369   92.9618   15.2399 C.3     1  UNL1        0.0558
      8 C          65.5375   92.1185   15.8145 C.3     1  UNL1        0.0175
      9 C          64.6397   91.3345   14.9039 C.3     1  UNL1        0.0229
     10 C          64.8413   91.3937   13.4187 C.3     1  UNL1        0.0933
     11 C          65.9408   92.2370   12.8441 C.3     1  UNL1        0.0910
     12 C          66.8386   93.0210   13.7547 C.3     1  UNL1        0.0370
     13 N          66.1424   92.2962   11.3589 N.am    1  UNL1       -0.3043
     14 C          67.5199   92.1525   10.7828 C.2     1  UNL1        0.2230
     15 C          67.7216   92.2117    9.2976 C.3     1  UNL1        0.0946
     16 O          68.6957   91.9495   11.6918 O.2     1  UNL1       -0.2751
     17 H          65.3707   92.4294   10.7623 H       1  UNL1        0.1494
     18 C          69.0138   93.7749   15.9030 C.3     1  UNL1        0.0858
     19 N          67.5347   93.7458   16.1507 N.3     1  UNL1       -0.2973
     20 H          67.2120   94.7130   16.1210 H       1  UNL1        0.1232
     21 N          61.7758   87.5627   11.4675 N.pl3   1  UNL1       -0.3122
     22 H          60.9918   87.3874   12.0366 H       1  UNL1        0.1486
     23 C          62.2117   86.5437   10.4567 C.ar    1  UNL1        0.1319
     24 N          61.9586   86.7793    8.9971 N.ar    1  UNL1       -0.2092
     25 C          62.3945   85.7604    7.9863 C.ar    1  UNL1        0.2000
     26 N          63.0835   84.5058    8.4351 N.ar    1  UNL1       -0.2239
     27 C          63.3366   84.2702    9.8947 C.ar    1  UNL1        0.0857
     28 C          64.0255   83.0157   10.3435 C.ar    1  UNL1        0.0192
     29 C          64.2786   82.7801   11.8030 C.ar    1  UNL1        0.0054
     30 C          63.8428   83.7990   12.8139 C.ar    1  UNL1        0.0716
     31 C          63.1538   85.0536   12.3651 C.ar    1  UNL1        0.0081
     32 C          62.9007   85.2892   10.9055 C.ar    1  UNL1        0.0491
     33 C          64.0959   83.5634   14.2735 C.3     1  UNL1        0.4186
     34 F          64.3490   83.3278   15.7331 F       1  UNL1       -0.1659
     35 F          62.7501   82.9135   14.4019 F       1  UNL1       -0.1659
     36 F          65.4416   84.2133   14.1450 F       1  UNL1       -0.1659
@<TRIPOS>BOND
     1    18    19    1
     2     7    19    1
     3     7     8    1
     4     8     9    1
     5     9    10    1
     6    10     1    1
     7     1     2    1
     8     2     3    1
     9     3     4    1
    10     4    21    1
    11    21    23    1
    12    23    24   ar
    13    24    25   ar
    14    25    26   ar
    15    26    27   ar
    16    27    28   ar
    17    28    29   ar
    18    29    30   ar
    19    30    33    1
    20    33    34    1
    21    33    35    1
    22    33    36    1
    23    30    31   ar
    24    31    32   ar
    25     4     5    1
    26     5     6    2
    27    10    11    1
    28    11    13    1
    29    13    14   am
    30    14    15    1
    31    14    16    2
    32    11    12    1
    33    12     7    1
    34     5     1   am
    35    32    23   ar
    36    32    27   ar
    37    19    20    1
    38    21    22    1
    39    13    17    1
@<TRIPOS>MOLECULE
*****
 36 39 0 0 0
SMALL
GASTEIGER

@<TRIPOS>ATOM
      1 N          62.6651   89.7800   11.1850 N.am    1  UNL1       -0.2781
      2 C          61.4806   89.9161   10.2748 C.3     1  UNL1        0.0957
      3 C          60.7984   88.5824   10.1992 C.3     1  UNL1        0.0504
      4 C          61.5612   87.6219   11.0627 C.3     1  UNL1        0.1495
      5 C          62.7149   88.3621   11.6719 C.2     1  UNL1        0.2435
      6 O          63.7387   87.7856   12.6044 O.2     1  UNL1       -0.2731
      7 C          65.5606   93.0509   12.2653 C.3     1  UNL1        0.0558
      8 C          65.0331   92.9485   10.8648 C.3     1  UNL1        0.0175
      9 C          64.0680   91.8582   10.5047 C.3     1  UNL1        0.0229
     10 C          63.6302   90.8703   11.5451 C.3     1  UNL1        0.0933
     11 C          64.1577   90.9727   12.9456 C.3     1  UNL1        0.0910
     12 C          65.1229   92.0630   13.3057 C.3     1  UNL1        0.0370
     13 N          63.7200   89.9848   13.9860 N.am    1  UNL1       -0.3043
     14 C          63.5618   90.4190   15.4130 C.2     1  UNL1        0.2230
     15 C          63.1240   89.4311   16.4534 C.3     1  UNL1        0.0946
     16 O          63.8412   91.8411   15.7997 O.2     1  UNL1       -0.2751
     17 H          63.5366   89.0514   13.7322 H       1  UNL1        0.1494
     18 C          66.4098   95.4895   11.9781 C.3     1  UNL1        0.0858
     19 N          66.5258   94.1413   12.6252 N.3     1  UNL1       -0.2973
     20 H          66.4412   94.2891   13.6309 H       1  UNL1        0.1232
     21 N          61.2288   86.1753   11.2789 N.pl3   1  UNL1       -0.3122
     22 H          60.3062   85.9094   11.4964 H       1  UNL1        0.1486
     23 C          62.3022   85.1337   11.1638 C.ar    1  UNL1        0.1319
     24 N          62.6777   84.5894    9.8174 N.ar    1  UNL1       -0.2092
     25 C          63.7510   83.5479    9.7024 C.ar    1  UNL1        0.2000
     26 N          64.4488   83.0508   10.9336 N.ar    1  UNL1       -0.2239
     27 C          64.0732   83.5951   12.2799 C.ar    1  UNL1        0.0857
     28 C          64.7710   83.0980   13.5112 C.ar    1  UNL1        0.0192
     29 C          64.3955   83.6424   14.8575 C.ar    1  UNL1        0.0054
     30 C          63.3222   84.6839   14.9726 C.ar    1  UNL1        0.0716
     31 C          62.6244   85.1810   13.7414 C.ar    1  UNL1        0.0081
     32 C          62.9999   84.6366   12.3950 C.ar    1  UNL1        0.0491
     33 C          62.9467   85.2283   16.3189 C.3     1  UNL1        0.4186
     34 F          62.5712   85.7727   17.6653 F       1  UNL1       -0.1659
     35 F          61.6580   84.4623   16.2692 F       1  UNL1       -0.1659
     36 F          64.2354   85.9942   16.3687 F       1  UNL1       -0.1659
@<TRIPOS>BOND
     1    18    19    1
     2     7    19    1
     3     7     8    1
     4     8     9    1
     5     9    10    1
     6    10     1    1
     7     1     2    1
     8     2     3    1
     9     3     4    1
    10     4    21    1
    11    21    23    1
    12    23    24   ar
    13    24    25   ar
    14    25    26   ar
    15    26    27   ar
    16    27    28   ar
    17    28    29   ar
    18    29    30   ar
    19    30    33    1
    20    33    34    1
    21    33    35    1
    22    33    36    1
    23    30    31   ar
    24    31    32   ar
    25     4     5    1
    26     5     6    2
    27    10    11    1
    28    11    13    1
    29    13    14   am
    30    14    15    1
    31    14    16    2
    32    11    12    1
    33    12     7    1
    34     5     1   am
    35    32    23   ar
    36    32    27   ar
    37    19    20    1
    38    21    22    1
    39    13    17    1
@<TRIPOS>MOLECULE
*****
 36 39 0 0 0
SMALL
GASTEIGER

@<TRIPOS>ATOM
      1 N          62.4220   85.9778   12.1247 N.am    1  UNL1       -0.2781
      2 C          61.3919   86.4176   11.1270 C.3     1  UNL1        0.0957
      3 C          61.4663   87.9114   11.0118 C.3     1  UNL1        0.0504
      4 C          62.5423   88.3948   11.9383 C.3     1  UNL1        0.1495
      5 C          63.1330   87.1998   12.6261 C.2     1  UNL1        0.2435
      6 O          64.2403   87.2226   13.6378 O.2     1  UNL1       -0.2731
      7 C          63.2365   81.7373   13.3912 C.3     1  UNL1        0.0558
      8 C          63.3586   82.1254   11.9475 C.3     1  UNL1        0.0175
      9 C          63.0871   83.5390   11.5253 C.3     1  UNL1        0.0229
     10 C          62.6935   84.5643   12.5469 C.3     1  UNL1        0.0933
     11 C          62.5714   84.1762   13.9906 C.3     1  UNL1        0.0910
     12 C          62.8429   82.7626   14.4128 C.3     1  UNL1        0.0370
     13 N          62.1777   85.2015   15.0122 N.am    1  UNL1       -0.3043
     14 C          63.1515   85.6117   16.0769 C.2     1  UNL1        0.2230
     15 C          62.7579   86.6371   17.0985 C.3     1  UNL1        0.0946
     16 O          64.5189   84.9966   16.1201 O.2     1  UNL1       -0.2751
     17 H          61.2803   85.6053   14.9840 H       1  UNL1        0.1494
     18 C          62.5282   79.2390   13.4765 C.3     1  UNL1        0.0858
     19 N          63.5080   80.3237   13.8133 N.3     1  UNL1       -0.2973
     20 H          64.3985   80.0569   13.3933 H       1  UNL1        0.1232
     21 N          62.9552   89.8225   12.1414 N.pl3   1  UNL1       -0.3122
     22 H          62.9208   90.4566   11.3891 H       1  UNL1        0.1486
     23 C          63.4204   90.2840   13.4908 C.ar    1  UNL1        0.1319
     24 N          62.7633   89.7562   14.7316 N.ar    1  UNL1       -0.2092
     25 C          63.2285   90.2177   16.0808 C.ar    1  UNL1        0.2000
     26 N          64.3508   91.2070   16.1893 N.ar    1  UNL1       -0.2239
     27 C          65.0078   91.7349   14.9485 C.ar    1  UNL1        0.0857
     28 C          66.1301   92.7242   15.0569 C.ar    1  UNL1        0.0192
     29 C          66.7871   93.2520   13.8161 C.ar    1  UNL1        0.0054
     30 C          66.3219   92.7905   12.4667 C.ar    1  UNL1        0.0716
     31 C          65.1996   91.8012   12.3583 C.ar    1  UNL1        0.0081
     32 C          64.5426   91.2733   13.5992 C.ar    1  UNL1        0.0491
     33 C          66.9789   93.3183   11.2259 C.3     1  UNL1        0.4186
     34 F          67.6360   93.8461    9.9850 F       1  UNL1       -0.1659
     35 F          66.3156   94.6466   11.4397 F       1  UNL1       -0.1659
     36 F          67.6423   91.9901   11.0122 F       1  UNL1       -0.1659
@<TRIPOS>BOND
     1    18    19    1
     2     7    19    1
     3     7     8    1
     4     8     9    1
     5     9    10    1
     6    10     1    1
     7     1     2    1
     8     2     3    1
     9     3     4    1
    10     4    21    1
    11    21    23    1
    12    23    24   ar
    13    24    25   ar
    14    25    26   ar
    15    26    27   ar
    16    27    28   ar
    17    28    29   ar
    18    29    30   ar
    19    30    33    1
    20    33    34    1
    21    33    35    1
    22    33    36    1
    23    30    31   ar
    24    31    32   ar
    25     4     5    1
    26     5     6    2
    27    10    11    1
    28    11    13    1
    29    13    14   am
    30    14    15    1
    31    14    16    2
    32    11    12    1
    33    12     7    1
    34     5     1   am
    35    32    23   ar
    36    32    27   ar
    37    19    20    1
    38    21    22    1
    39    13    17    1
@<TRIPOS>MOLECULE
*****
 36 39 0 0 0
SMALL
GASTEIGER

@<TRIPOS>ATOM
      1 N          64.0429   91.4629   12.5099 N.am    1  UNL1       -0.2781
      2 C          63.9092   91.7426   11.0423 C.3     1  UNL1        0.0957
      3 C          62.7615   90.9311   10.5185 C.3     1  UNL1        0.0504
      4 C          62.1859   90.1500   11.6623 C.3     1  UNL1        0.1495
      5 C          62.9778   90.4786   12.8931 C.2     1  UNL1        0.2435
      6 O          62.7454   89.9209   14.2660 O.2     1  UNL1       -0.2731
      7 C          67.1019   93.2609   15.2774 C.3     1  UNL1        0.0558
      8 C          66.2662   92.1021   15.7345 C.3     1  UNL1        0.0175
      9 C          65.2465   91.5028   14.8120 C.3     1  UNL1        0.0229
     10 C          65.0626   92.0622   13.4324 C.3     1  UNL1        0.0933
     11 C          65.8983   93.2210   12.9754 C.3     1  UNL1        0.0910
     12 C          66.9180   93.8203   13.8979 C.3     1  UNL1        0.0370
     13 N          65.7143   93.7804   11.5958 N.am    1  UNL1       -0.3043
     14 C          66.7275   93.4915   10.5281 C.2     1  UNL1        0.2230
     15 C          66.5436   94.0509    9.1486 C.3     1  UNL1        0.0946
     16 O          67.9247   92.6433   10.8399 O.2     1  UNL1       -0.2751
     17 H          64.9286   94.3371   11.3912 H       1  UNL1        0.1494
     18 C          69.5840   93.6557   15.9361 C.3     1  UNL1        0.0858
     19 N          68.1216   93.8601   16.2001 N.3     1  UNL1       -0.2973
     20 H          67.9608   94.8674   16.2023 H       1  UNL1        0.1232
     21 N          61.0225   89.2059   11.5883 N.pl3   1  UNL1       -0.3122
     22 H          60.1415   89.4827   11.9295 H       1  UNL1        0.1486
     23 C          61.2016   87.8401   10.9944 C.ar    1  UNL1        0.1319
     24 N          61.8592   86.7548   11.7942 N.ar    1  UNL1       -0.2092
     25 C          62.0382   85.3891   11.2003 C.ar    1  UNL1        0.2000
     26 N          61.5596   85.1087    9.8066 N.ar    1  UNL1       -0.2239
     27 C          60.9020   86.1940    9.0069 C.ar    1  UNL1        0.0857
     28 C          60.4234   85.9136    7.6132 C.ar    1  UNL1        0.0192
     29 C          59.7658   86.9988    6.8134 C.ar    1  UNL1        0.0054
     30 C          59.5867   88.3646    7.4073 C.ar    1  UNL1        0.0716
     31 C          60.0653   88.6451    8.8010 C.ar    1  UNL1        0.0081
     32 C          60.7230   87.5597    9.6008 C.ar    1  UNL1        0.0491
     33 C          58.9291   89.4499    6.6076 C.3     1  UNL1        0.4186
     34 F          58.2715   90.5353    5.8077 F       1  UNL1       -0.1659
     35 F          57.5840   88.8622    6.9161 F       1  UNL1       -0.1659
     36 F          60.2742   90.0376    6.2990 F       1  UNL1       -0.1659
@<TRIPOS>BOND
     1    18    19    1
     2     7    19    1
     3     7     8    1
     4     8     9    1
     5     9    10    1
     6    10     1    1
     7     1     2    1
     8     2     3    1
     9     3     4    1
    10     4    21    1
    11    21    23    1
    12    23    24   ar
    13    24    25   ar
    14    25    26   ar
    15    26    27   ar
    16    27    28   ar
    17    28    29   ar
    18    29    30   ar
    19    30    33    1
    20    33    34    1
    21    33    35    1
    22    33    36    1
    23    30    31   ar
    24    31    32   ar
    25     4     5    1
    26     5     6    2
    27    10    11    1
    28    11    13    1
    29    13    14   am
    30    14    15    1
    31    14    16    2
    32    11    12    1
    33    12     7    1
    34     5     1   am
    35    32    23   ar
    36    32    27   ar
    37    19    20    1
    38    21    22    1
    39    13    17    1
