@<TRIPOS>MOLECULE
*****
 56 60 0 0 0
SMALL
GASTEIGER

@<TRIPOS>ATOM
      1 C          63.5180   90.3875   13.5951 C.2     1  UNL1        0.2404
      2 O          62.0463   90.6127   13.4123 O.2     1  UNL1       -0.2733
      3 N          64.4656   90.6690   12.4669 N.am    1  UNL1       -0.3042
      4 H          65.4315   90.5212   12.5869 H       1  UNL1        0.1494
      5 C          63.9415   91.1757   11.1559 C.3     1  UNL1        0.0777
      6 C          63.1729   90.2592   10.2508 C.3     1  UNL1        0.0415
      7 C          62.4082   89.1044   10.8266 C.3     1  UNL1        0.0988
      8 N          61.2636   88.5073   10.0628 N.am    1  UNL1       -0.2418
      9 C          60.3339   89.3947    9.2894 C.2     1  UNL1        0.4055
     10 O          60.5489   90.8792    9.2797 O.2     1  UNL1       -0.2262
     11 C          61.0486   87.0229   10.0725 C.3     1  UNL1        0.1234
     12 C          61.3413   86.2146    8.8432 C.ar    1  UNL1       -0.0022
     13 C          60.2401   85.8947    7.8762 C.ar    1  UNL1       -0.0017
     14 C          60.5327   85.0865    6.6469 C.ar    1  UNL1        0.0111
     15 C          61.9265   84.5982    6.3846 C.ar    1  UNL1        0.0577
     16 CL         62.2191   83.7900    5.1553 Cl      1  UNL1       -0.0822
     17 C          63.0278   84.9182    7.3515 C.ar    1  UNL1        0.0111
     18 C          62.7351   85.7264    8.5808 C.ar    1  UNL1       -0.0017
     19 O          59.1893   88.7976    8.5256 O.3     1  UNL1       -0.4289
     20 C          59.2615   88.6866    7.0314 C.3     1  UNL1        0.2447
     21 C          58.9897   89.8884    6.1760 C.ar    1  UNL1        0.0714
     22 C          57.6384   90.4564    5.8572 C.ar    1  UNL1        0.1053
     23 N          57.8352   91.6524    4.9734 N.ar    1  UNL1       -0.2350
     24 C          59.3079   91.8235    4.7460 C.ar    1  UNL1        0.1343
     25 S          60.0215   90.7334    5.4893 S.2     1  UNL1       -0.0652
     26 C          64.1860   92.5989   10.7501 C.3     1  UNL1        0.0459
     27 C          65.5614   93.0366   10.3421 C.ar    1  UNL1       -0.0205
     28 C          65.8492   94.4913   10.1156 C.ar    1  UNL1       -0.0042
     29 C          67.2247   94.9290    9.7076 C.ar    1  UNL1       -0.0003
     30 C          68.3123   93.9121    9.5259 C.ar    1  UNL1       -0.0000
     31 C          68.0245   92.4575    9.7523 C.ar    1  UNL1       -0.0003
     32 C          66.6491   92.0198   10.1604 C.ar    1  UNL1       -0.0042
     33 C          64.0421   89.8808   14.9060 C.3     1  UNL1        0.1511
     34 N          63.3232   86.3208   16.5058 N.am    1  UNL1       -0.2567
     35 C          62.4741   85.7119   17.5820 C.3     1  UNL1        0.1168
     36 C          63.2581   87.7964   16.2440 C.2     1  UNL1        0.3046
     37 O          62.3439   88.6630   17.0583 O.2     1  UNL1       -0.2526
     38 N          64.1072   88.4053   15.1678 N.am    1  UNL1       -0.2824
     39 H          64.7072   87.8365   14.6333 H       1  UNL1        0.1514
     40 C          64.2374   85.4542   15.6915 C.3     1  UNL1        0.1413
     41 C          62.6722   82.6169   13.5548 C.ar    1  UNL1        0.0875
     42 N          63.1333   83.1610   14.8744 N.ar    1  UNL1       -0.2453
     43 C          63.6705   84.5425   14.6439 C.ar    1  UNL1        0.0858
     44 C          63.5413   84.8521   13.1819 C.ar    1  UNL1        0.0530
     45 S          62.9243   83.6620   12.5088 S.2     1  UNL1       -0.0705
     46 C          60.8583   80.8400   14.1046 C.3     1  UNL1        0.0069
     47 C          62.0654   81.2650   13.3221 C.3     1  UNL1        0.0465
     48 C          62.6657   80.3381   12.3070 C.3     1  UNL1        0.0069
     49 C          64.5011   90.8497   15.9552 C.3     1  UNL1        0.0463
     50 C          65.0277   92.1957   15.5541 C.3     1  UNL1        0.0745
     51 N          66.4720   92.3555   15.1816 N.3     1  UNL1       -0.2684
     52 C          66.9812   91.7853   13.8911 C.3     1  UNL1        0.1046
     53 C          68.4254   91.9451   13.5186 C.3     1  UNL1        0.1595
     54 O          69.3604   92.6750   14.4368 O.3     1  UNL1       -0.3508
     55 C          68.8512   93.2452   15.7274 C.3     1  UNL1        0.1595
     56 C          67.4070   93.0854   16.0998 C.3     1  UNL1        0.1046
@<TRIPOS>BOND
     1    46    47    1
     2    47    48    1
     3    47    41    1
     4    41    42   ar
     5    42    43   ar
     6    43    40    1
     7    40    34    1
     8    34    35    1
     9    34    36   am
    10    36    37    2
    11    36    38   am
    12    38    33    1
    13    33    49    1
    14    49    50    1
    15    50    51    1
    16    51    52    1
    17    52    53    1
    18    53    54    1
    19    54    55    1
    20    55    56    1
    21    33     1    1
    22     1     2    2
    23     1     3   am
    24     3     5    1
    25     5     6    1
    26     6     7    1
    27     7     8    1
    28     8    11    1
    29    11    12    1
    30    12    13   ar
    31    13    14   ar
    32    14    15   ar
    33    15    16    1
    34    15    17   ar
    35    17    18   ar
    36     8     9   am
    37     9    10    2
    38     9    19    1
    39    19    20    1
    40    20    21    1
    41    21    22   ar
    42    22    23   ar
    43    23    24   ar
    44    24    25   ar
    45     5    26    1
    46    26    27    1
    47    27    28   ar
    48    28    29   ar
    49    29    30   ar
    50    30    31   ar
    51    31    32   ar
    52    43    44   ar
    53    44    45   ar
    54    45    41   ar
    55    56    51    1
    56    18    12   ar
    57    25    21   ar
    58    32    27   ar
    59    38    39    1
    60     3     4    1
@<TRIPOS>MOLECULE
*****
 56 60 0 0 0
SMALL
GASTEIGER

@<TRIPOS>ATOM
      1 C          62.5384   90.3706   12.0661 C.2     1  UNL1        0.2404
      2 O          61.3172   89.6845   12.6028 O.2     1  UNL1       -0.2733
      3 N          63.6957   90.6613   12.9750 N.am    1  UNL1       -0.3042
      4 H          64.4972   91.1116   12.6228 H       1  UNL1        0.1494
      5 C          63.6318   90.2658   14.4206 C.3     1  UNL1        0.0777
      6 C          62.9444   88.9940   14.8206 C.3     1  UNL1        0.0415
      7 C          63.5192   88.1425   15.9134 C.3     1  UNL1        0.0988
      8 N          63.6329   86.6585   15.7267 N.am    1  UNL1       -0.2418
      9 C          62.6685   85.7397   16.4165 C.2     1  UNL1        0.4055
     10 O          61.5903   86.3050   17.2929 O.2     1  UNL1       -0.2262
     11 C          64.7110   86.0932   14.8503 C.3     1  UNL1        0.1234
     12 C          64.3478   85.2581   13.6585 C.ar    1  UNL1       -0.0022
     13 C          65.1316   84.0184   13.3444 C.ar    1  UNL1       -0.0017
     14 C          64.7683   83.1832   12.1525 C.ar    1  UNL1        0.0111
     15 C          63.6213   83.5877   11.2747 C.ar    1  UNL1        0.0577
     16 CL         63.2580   82.7526   10.0829 Cl      1  UNL1       -0.0822
     17 C          62.8374   84.8275   11.5888 C.ar    1  UNL1        0.0111
     18 C          63.2006   85.6627   12.7807 C.ar    1  UNL1       -0.0017
     19 O          62.7822   84.2558   16.2298 O.3     1  UNL1       -0.4289
     20 C          61.8780   83.5500   15.2630 C.3     1  UNL1        0.2447
     21 C          62.2930   82.2360   14.6704 C.ar    1  UNL1        0.0714
     22 C          63.6173   81.5593   14.8667 C.ar    1  UNL1        0.1053
     23 N          63.5993   80.2731   14.0950 N.ar    1  UNL1       -0.2350
     24 C          62.2640   80.1549   13.4218 C.ar    1  UNL1        0.1343
     25 S          61.4567   81.3681   13.7775 S.2     1  UNL1       -0.0652
     26 C          64.2554   91.1422   15.4661 C.3     1  UNL1        0.0459
     27 C          65.6343   91.6943   15.2569 C.ar    1  UNL1       -0.0205
     28 C          66.4236   91.3009   14.0435 C.ar    1  UNL1       -0.0042
     29 C          67.8025   91.8531   13.8343 C.ar    1  UNL1       -0.0003
     30 C          68.3920   92.7987   14.8384 C.ar    1  UNL1       -0.0000
     31 C          67.6027   93.1921   16.0518 C.ar    1  UNL1       -0.0003
     32 C          66.2239   92.6400   16.2610 C.ar    1  UNL1       -0.0042
     33 C          62.6022   90.7660   10.6206 C.3     1  UNL1        0.1511
     34 N          60.2529   88.5780    8.2876 N.am    1  UNL1       -0.2567
     35 C          60.1241   87.1587    7.8196 C.3     1  UNL1        0.1168
     36 C          61.3632   88.9624    9.2201 C.2     1  UNL1        0.3046
     37 O          62.3446   87.9275    9.6846 O.2     1  UNL1       -0.2526
     38 N          61.4920   90.3816    9.6881 N.am    1  UNL1       -0.2824
     39 H          60.8478   91.0609    9.3833 H       1  UNL1        0.1514
     40 C          59.2715   89.6128    7.8231 C.3     1  UNL1        0.1413
     41 C          60.5722   91.2766    4.5665 C.ar    1  UNL1        0.0875
     42 N          60.8123   90.4994    5.8269 N.ar    1  UNL1       -0.2453
     43 C          59.4952   90.3292    6.5244 C.ar    1  UNL1        0.0858
     44 C          58.4413   91.0012    5.6952 C.ar    1  UNL1        0.0530
     45 S          59.1069   91.5867    4.4851 S.2     1  UNL1       -0.0705
     46 C          62.9340   90.9612    3.5310 C.3     1  UNL1        0.0069
     47 C          61.6145   91.6738    3.5637 C.3     1  UNL1        0.0465
     48 C          61.3374   92.7838    2.5935 C.3     1  UNL1        0.0069
     49 C          63.7764   91.5459   10.1076 C.3     1  UNL1        0.0463
     50 C          64.6184   92.3455   11.0571 C.3     1  UNL1        0.0745
     51 N          65.8298   93.0736   10.5546 N.3     1  UNL1       -0.2684
     52 C          67.0300   92.3023   10.0914 C.3     1  UNL1        0.1046
     53 C          68.2413   93.0305    9.5889 C.3     1  UNL1        0.1595
     54 O          68.2524   94.5299    9.5497 O.3     1  UNL1       -0.3508
     55 C          67.0522   95.3012   10.0130 C.3     1  UNL1        0.1595
     56 C          65.8409   94.5731   10.5155 C.3     1  UNL1        0.1046
@<TRIPOS>BOND
     1    46    47    1
     2    47    48    1
     3    47    41    1
     4    41    42   ar
     5    42    43   ar
     6    43    40    1
     7    40    34    1
     8    34    35    1
     9    34    36   am
    10    36    37    2
    11    36    38   am
    12    38    33    1
    13    33    49    1
    14    49    50    1
    15    50    51    1
    16    51    52    1
    17    52    53    1
    18    53    54    1
    19    54    55    1
    20    55    56    1
    21    33     1    1
    22     1     2    2
    23     1     3   am
    24     3     5    1
    25     5     6    1
    26     6     7    1
    27     7     8    1
    28     8    11    1
    29    11    12    1
    30    12    13   ar
    31    13    14   ar
    32    14    15   ar
    33    15    16    1
    34    15    17   ar
    35    17    18   ar
    36     8     9   am
    37     9    10    2
    38     9    19    1
    39    19    20    1
    40    20    21    1
    41    21    22   ar
    42    22    23   ar
    43    23    24   ar
    44    24    25   ar
    45     5    26    1
    46    26    27    1
    47    27    28   ar
    48    28    29   ar
    49    29    30   ar
    50    30    31   ar
    51    31    32   ar
    52    43    44   ar
    53    44    45   ar
    54    45    41   ar
    55    56    51    1
    56    18    12   ar
    57    25    21   ar
    58    32    27   ar
    59    38    39    1
    60     3     4    1
@<TRIPOS>MOLECULE
*****
 56 60 0 0 0
SMALL
GASTEIGER

@<TRIPOS>ATOM
      1 C          63.9429   91.1712   12.4718 C.2     1  UNL1        0.2404
      2 O          63.9731   92.4135   13.3119 O.2     1  UNL1       -0.2733
      3 N          64.3233   89.8503   13.0722 N.am    1  UNL1       -0.3042
      4 H          64.3035   89.0350   12.5208 H       1  UNL1        0.1494
      5 C          64.7341   89.7717   14.5127 C.3     1  UNL1        0.0777
      6 C          64.9045   88.4352   15.1722 C.3     1  UNL1        0.0415
      7 C          63.7078   87.7025   15.7023 C.3     1  UNL1        0.0988
      8 N          63.6513   86.2054   15.6277 N.am    1  UNL1       -0.2418
      9 C          62.5537   85.4605   16.3278 C.2     1  UNL1        0.4055
     10 O          61.5124   86.2126   17.1025 O.2     1  UNL1       -0.2262
     11 C          64.6925   85.4533   14.8529 C.3     1  UNL1        0.1234
     12 C          64.3050   84.6902   13.6210 C.ar    1  UNL1       -0.0022
     13 C          63.1031   85.1081   12.8269 C.ar    1  UNL1       -0.0017
     14 C          62.7157   84.3450   11.5950 C.ar    1  UNL1        0.0111
     15 C          63.5302   83.1639   11.1572 C.ar    1  UNL1        0.0577
     16 CL         63.1428   82.4008    9.9253 Cl      1  UNL1       -0.0822
     17 C          64.7322   82.7460   11.9514 C.ar    1  UNL1        0.0111
     18 C          65.1196   83.5091   13.1833 C.ar    1  UNL1       -0.0017
     19 O          62.4972   83.9634   16.2531 O.3     1  UNL1       -0.4289
     20 C          61.6928   83.2959   15.1772 C.3     1  UNL1        0.2447
     21 C          62.1466   81.9857   14.6051 C.ar    1  UNL1        0.0714
     22 C          63.4849   81.3443   14.8240 C.ar    1  UNL1        0.1053
     23 N          63.5072   80.0489   14.0679 N.ar    1  UNL1       -0.2350
     24 C          62.1829   79.8898   13.3817 C.ar    1  UNL1        0.1343
     25 S          61.3420   81.0867   13.7138 S.2     1  UNL1       -0.0652
     26 C          64.9745   91.0295   15.2938 C.3     1  UNL1        0.0459
     27 C          66.3119   91.7059   15.2331 C.ar    1  UNL1       -0.0205
     28 C          67.2536   91.4060   14.1047 C.ar    1  UNL1       -0.0042
     29 C          68.5910   92.0825   14.0441 C.ar    1  UNL1       -0.0003
     30 C          68.9868   93.0589   15.1117 C.ar    1  UNL1       -0.0000
     31 C          68.0451   93.3588   16.2401 C.ar    1  UNL1       -0.0003
     32 C          66.7077   92.6824   16.3008 C.ar    1  UNL1       -0.0042
     33 C          63.5321   91.2497   11.0313 C.3     1  UNL1        0.1511
     34 N          60.0268   89.3923   11.1422 N.am    1  UNL1       -0.2567
     35 C          59.0897   88.7984   12.1516 C.3     1  UNL1        0.1168
     36 C          61.3109   90.0241   11.5915 C.2     1  UNL1        0.3046
     37 O          61.6579   90.0620   13.0502 O.2     1  UNL1       -0.2526
     38 N          62.2480   90.6179   10.5820 N.am    1  UNL1       -0.2824
     39 H          62.0203   90.5930    9.6245 H       1  UNL1        0.1514
     40 C          59.6798   89.3543    9.6834 C.3     1  UNL1        0.1413
     41 C          61.0380   86.2198    7.8407 C.ar    1  UNL1        0.0875
     42 N          61.2507   87.4215    8.7128 N.ar    1  UNL1       -0.2453
     43 C          59.9285   88.1088    8.8854 C.ar    1  UNL1        0.0858
     44 C          58.8988   87.3318    8.1199 C.ar    1  UNL1        0.0530
     45 S          59.5845   86.1643    7.4742 S.2     1  UNL1       -0.0705
     46 C          63.3886   85.1611    8.1627 C.3     1  UNL1        0.0069
     47 C          62.0935   85.2447    7.4105 C.3     1  UNL1        0.0465
     48 C          61.8541   84.3533    6.2281 C.3     1  UNL1        0.0069
     49 C          64.4056   91.9601   10.0400 C.3     1  UNL1        0.0463
     50 C          65.7978   92.3664   10.4229 C.3     1  UNL1        0.0745
     51 N          66.2418   93.7874   10.2391 N.3     1  UNL1       -0.2684
     52 C          65.7842   94.8461   11.1981 C.3     1  UNL1        0.1046
     53 C          66.2282   96.2670   11.0143 C.3     1  UNL1        0.1595
     54 O          67.1297   96.6292    9.8714 O.3     1  UNL1       -0.3508
     55 C          67.5872   95.5705    8.9124 C.3     1  UNL1        0.1595
     56 C          67.1433   94.1496    9.0962 C.3     1  UNL1        0.1046
@<TRIPOS>BOND
     1    46    47    1
     2    47    48    1
     3    47    41    1
     4    41    42   ar
     5    42    43   ar
     6    43    40    1
     7    40    34    1
     8    34    35    1
     9    34    36   am
    10    36    37    2
    11    36    38   am
    12    38    33    1
    13    33    49    1
    14    49    50    1
    15    50    51    1
    16    51    52    1
    17    52    53    1
    18    53    54    1
    19    54    55    1
    20    55    56    1
    21    33     1    1
    22     1     2    2
    23     1     3   am
    24     3     5    1
    25     5     6    1
    26     6     7    1
    27     7     8    1
    28     8    11    1
    29    11    12    1
    30    12    13   ar
    31    13    14   ar
    32    14    15   ar
    33    15    16    1
    34    15    17   ar
    35    17    18   ar
    36     8     9   am
    37     9    10    2
    38     9    19    1
    39    19    20    1
    40    20    21    1
    41    21    22   ar
    42    22    23   ar
    43    23    24   ar
    44    24    25   ar
    45     5    26    1
    46    26    27    1
    47    27    28   ar
    48    28    29   ar
    49    29    30   ar
    50    30    31   ar
    51    31    32   ar
    52    43    44   ar
    53    44    45   ar
    54    45    41   ar
    55    56    51    1
    56    18    12   ar
    57    25    21   ar
    58    32    27   ar
    59    38    39    1
    60     3     4    1
@<TRIPOS>MOLECULE
*****
 56 60 0 0 0
SMALL
GASTEIGER

@<TRIPOS>ATOM
      1 C          63.0414   90.1636   13.4584 C.2     1  UNL1        0.2404
      2 O          61.6142   90.1596   12.9970 O.2     1  UNL1       -0.2733
      3 N          64.1362   90.5460   12.5070 N.am    1  UNL1       -0.3042
      4 H          65.0730   90.5486   12.8099 H       1  UNL1        0.1494
      5 C          63.8038   90.9245   11.0941 C.3     1  UNL1        0.0777
      6 C          63.3767   89.8704   10.1160 C.3     1  UNL1        0.0415
      7 C          62.3091   88.8863   10.4925 C.3     1  UNL1        0.0988
      8 N          61.2515   88.5098    9.4976 N.am    1  UNL1       -0.2418
      9 C          60.1063   89.4413    9.2317 C.2     1  UNL1        0.4055
     10 O          60.0185   90.7493    9.9608 O.2     1  UNL1       -0.2262
     11 C          61.3393   87.2019    8.7686 C.3     1  UNL1        0.1234
     12 C          62.0939   86.0553    9.3733 C.ar    1  UNL1       -0.0022
     13 C          63.0716   85.2790    8.5418 C.ar    1  UNL1       -0.0017
     14 C          63.8263   84.1324    9.1466 C.ar    1  UNL1        0.0111
     15 C          63.6033   83.7621   10.5829 C.ar    1  UNL1        0.0577
     16 CL         64.3580   82.6155   11.1877 Cl      1  UNL1       -0.0822
     17 C          62.6256   84.5383   11.4145 C.ar    1  UNL1        0.0111
     18 C          61.8709   85.6849   10.8097 C.ar    1  UNL1       -0.0017
     19 O          59.0487   89.0647    8.2368 O.3     1  UNL1       -0.4289
     20 C          59.3779   89.0171    6.7741 C.3     1  UNL1        0.2447
     21 C          59.0827   90.1999    5.9000 C.ar    1  UNL1        0.0714
     22 C          57.7244   90.7700    5.6172 C.ar    1  UNL1        0.1053
     23 N          57.8962   91.9427    4.6977 N.ar    1  UNL1       -0.2350
     24 C          59.3607   92.0972    4.4122 C.ar    1  UNL1        0.1343
     25 S          60.0940   91.0201    5.1553 S.2     1  UNL1       -0.0652
     26 C          63.8984   92.3569   10.6592 C.3     1  UNL1        0.0459
     27 C          65.2373   92.9623   10.3580 C.ar    1  UNL1       -0.0205
     28 C          66.4309   92.0778   10.1512 C.ar    1  UNL1       -0.0042
     29 C          67.7699   92.6833    9.8499 C.ar    1  UNL1       -0.0003
     30 C          67.9151   94.1732    9.7555 C.ar    1  UNL1       -0.0000
     31 C          66.7214   95.0577    9.9623 C.ar    1  UNL1       -0.0003
     32 C          65.3825   94.4523   10.2636 C.ar    1  UNL1       -0.0042
     33 C          63.3739   89.7852   14.8713 C.3     1  UNL1        0.1511
     34 N          62.3972   87.0025   17.5269 N.am    1  UNL1       -0.2567
     35 C          62.5664   86.7231   18.9909 C.3     1  UNL1        0.1168
     36 C          62.9702   88.2542   16.9311 C.2     1  UNL1        0.3046
     37 O          63.7123   89.2265   17.7992 O.2     1  UNL1       -0.2526
     38 N          62.8010   88.5335   15.4671 N.am    1  UNL1       -0.2824
     39 H          62.3139   87.8953   14.8973 H       1  UNL1        0.1514
     40 C          61.6551   86.0301   16.6588 C.3     1  UNL1        0.1413
     41 C          62.9131   82.8866   14.7611 C.ar    1  UNL1        0.0875
     42 N          61.8100   83.6769   15.4004 N.ar    1  UNL1       -0.2453
     43 C          62.4013   84.9456   15.9397 C.ar    1  UNL1        0.0858
     44 C          63.8697   84.9394   15.6336 C.ar    1  UNL1        0.0530
     45 S          64.1861   83.6669   14.9052 S.2     1  UNL1       -0.0705
     46 C          63.9860   80.7299   13.7878 C.3     1  UNL1        0.0069
     47 C          62.7686   81.5506   14.0946 C.3     1  UNL1        0.0465
     48 C          61.4065   81.0353   13.7349 C.3     1  UNL1        0.0069
     49 C          64.2794   90.6585   15.6884 C.3     1  UNL1        0.0463
     50 C          64.7586   91.9677   15.1350 C.3     1  UNL1        0.0745
     51 N          66.2271   92.2110   14.9493 N.3     1  UNL1       -0.2684
     52 C          67.0073   92.9333   16.0073 C.3     1  UNL1        0.1046
     53 C          68.4757   93.1766   15.8215 C.3     1  UNL1        0.1595
     54 O          69.1639   92.6976   14.5778 O.3     1  UNL1       -0.3508
     55 C          68.3837   91.9752   13.5197 C.3     1  UNL1        0.1595
     56 C          66.9153   91.7320   13.7055 C.3     1  UNL1        0.1046
@<TRIPOS>BOND
     1    46    47    1
     2    47    48    1
     3    47    41    1
     4    41    42   ar
     5    42    43   ar
     6    43    40    1
     7    40    34    1
     8    34    35    1
     9    34    36   am
    10    36    37    2
    11    36    38   am
    12    38    33    1
    13    33    49    1
    14    49    50    1
    15    50    51    1
    16    51    52    1
    17    52    53    1
    18    53    54    1
    19    54    55    1
    20    55    56    1
    21    33     1    1
    22     1     2    2
    23     1     3   am
    24     3     5    1
    25     5     6    1
    26     6     7    1
    27     7     8    1
    28     8    11    1
    29    11    12    1
    30    12    13   ar
    31    13    14   ar
    32    14    15   ar
    33    15    16    1
    34    15    17   ar
    35    17    18   ar
    36     8     9   am
    37     9    10    2
    38     9    19    1
    39    19    20    1
    40    20    21    1
    41    21    22   ar
    42    22    23   ar
    43    23    24   ar
    44    24    25   ar
    45     5    26    1
    46    26    27    1
    47    27    28   ar
    48    28    29   ar
    49    29    30   ar
    50    30    31   ar
    51    31    32   ar
    52    43    44   ar
    53    44    45   ar
    54    45    41   ar
    55    56    51    1
    56    18    12   ar
    57    25    21   ar
    58    32    27   ar
    59    38    39    1
    60     3     4    1
@<TRIPOS>MOLECULE
*****
 56 60 0 0 0
SMALL
GASTEIGER

@<TRIPOS>ATOM
      1 C          62.7738   89.8029   13.0316 C.2     1  UNL1        0.2404
      2 O          63.6871   88.8492   12.3199 O.2     1  UNL1       -0.2733
      3 N          61.3939   90.0569   12.5013 N.am    1  UNL1       -0.3042
      4 H          60.7945   90.6828   12.9684 H       1  UNL1        0.1494
      5 C          60.9271   89.3572   11.2592 C.3     1  UNL1        0.0777
      6 C          60.2235   88.0364   11.3619 C.3     1  UNL1        0.0415
      7 C          60.9188   86.8627   11.9856 C.3     1  UNL1        0.0988
      8 N          61.9712   86.1195   11.2175 N.am    1  UNL1       -0.2418
      9 C          62.5249   84.8336   11.7558 C.2     1  UNL1        0.4055
     10 O          62.0262   84.2909   13.0622 O.2     1  UNL1       -0.2262
     11 C          62.4699   86.6622    9.9111 C.3     1  UNL1        0.1234
     12 C          62.1863   85.9254    8.6356 C.ar    1  UNL1       -0.0022
     13 C          60.7858   85.8607    8.1024 C.ar    1  UNL1       -0.0017
     14 C          60.5021   85.1240    6.8270 C.ar    1  UNL1        0.0111
     15 C          61.6190   84.4520    6.0847 C.ar    1  UNL1        0.0577
     16 CL         61.3353   83.7152    4.8093 Cl      1  UNL1       -0.0822
     17 C          63.0196   84.5167    6.6179 C.ar    1  UNL1        0.0111
     18 C          63.3032   85.2534    7.8934 C.ar    1  UNL1       -0.0017
     19 O          63.5774   84.0904   10.9877 O.3     1  UNL1       -0.4289
     20 C          64.4338   83.0727   11.6812 C.3     1  UNL1        0.2447
     21 C          63.7956   81.9618   12.4613 C.ar    1  UNL1        0.0714
     22 C          64.0123   81.6686   13.9164 C.ar    1  UNL1        0.1053
     23 N          63.1792   80.4746   14.2777 N.ar    1  UNL1       -0.2350
     24 C          62.4477   80.0299   13.0459 C.ar    1  UNL1        0.1343
     25 S          62.8286   80.9490   11.9234 S.2     1  UNL1       -0.0652
     26 C          61.1640   89.9782    9.9146 C.3     1  UNL1        0.0459
     27 C          60.3309   89.5618    8.7389 C.ar    1  UNL1       -0.0205
     28 C          60.4182   90.3242    7.4500 C.ar    1  UNL1       -0.0042
     29 C          59.5849   89.9077    6.2743 C.ar    1  UNL1       -0.0003
     30 C          58.6644   88.7288    6.3874 C.ar    1  UNL1       -0.0000
     31 C          58.5771   87.9664    7.6763 C.ar    1  UNL1       -0.0003
     32 C          59.4102   88.3828    8.8520 C.ar    1  UNL1       -0.0042
     33 C          63.2405   90.5026   14.2736 C.3     1  UNL1        0.1511
     34 N          66.7464   92.3599   14.3681 N.am    1  UNL1       -0.2567
     35 C          68.1869   92.0494   14.6483 C.3     1  UNL1        0.1168
     36 C          65.7137   91.2760   14.4609 C.2     1  UNL1        0.3046
     37 O          66.1214   89.8816   14.8341 O.2     1  UNL1       -0.2526
     38 N          64.2732   91.5865   14.1807 N.am    1  UNL1       -0.2824
     39 H          64.0056   92.5017   13.9358 H       1  UNL1        0.1514
     40 C          66.3386   93.7544   13.9950 C.3     1  UNL1        0.1413
     41 C          67.1439   94.3359   10.2428 C.ar    1  UNL1        0.0875
     42 N          67.1535   93.4668   11.4654 N.ar    1  UNL1       -0.2453
     43 C          66.5323   94.2418   12.5896 C.ar    1  UNL1        0.0858
     44 C          66.1390   95.5896   12.0618 C.ar    1  UNL1        0.0530
     45 S          66.5170   95.6478   10.6113 S.2     1  UNL1       -0.0705
     46 C          68.4762   92.7060    8.7201 C.3     1  UNL1        0.0069
     47 C          67.6692   93.9590    8.8892 C.3     1  UNL1        0.0465
     48 C          67.3874   94.8352    7.7048 C.3     1  UNL1        0.0069
     49 C          62.6744   90.1184   15.6085 C.3     1  UNL1        0.0463
     50 C          63.4494   89.2129   16.5193 C.3     1  UNL1        0.0745
     51 N          63.4322   87.7298   16.2947 N.3     1  UNL1       -0.2684
     52 C          62.5772   86.8504   17.1581 C.3     1  UNL1        0.1046
     53 C          62.5600   85.3675   16.9335 C.3     1  UNL1        0.1595
     54 O          63.3977   84.7639   15.8454 O.3     1  UNL1       -0.3508
     55 C          64.2527   85.6433   14.9820 C.3     1  UNL1        0.1595
     56 C          64.2699   87.1263   15.2066 C.3     1  UNL1        0.1046
@<TRIPOS>BOND
     1    46    47    1
     2    47    48    1
     3    47    41    1
     4    41    42   ar
     5    42    43   ar
     6    43    40    1
     7    40    34    1
     8    34    35    1
     9    34    36   am
    10    36    37    2
    11    36    38   am
    12    38    33    1
    13    33    49    1
    14    49    50    1
    15    50    51    1
    16    51    52    1
    17    52    53    1
    18    53    54    1
    19    54    55    1
    20    55    56    1
    21    33     1    1
    22     1     2    2
    23     1     3   am
    24     3     5    1
    25     5     6    1
    26     6     7    1
    27     7     8    1
    28     8    11    1
    29    11    12    1
    30    12    13   ar
    31    13    14   ar
    32    14    15   ar
    33    15    16    1
    34    15    17   ar
    35    17    18   ar
    36     8     9   am
    37     9    10    2
    38     9    19    1
    39    19    20    1
    40    20    21    1
    41    21    22   ar
    42    22    23   ar
    43    23    24   ar
    44    24    25   ar
    45     5    26    1
    46    26    27    1
    47    27    28   ar
    48    28    29   ar
    49    29    30   ar
    50    30    31   ar
    51    31    32   ar
    52    43    44   ar
    53    44    45   ar
    54    45    41   ar
    55    56    51    1
    56    18    12   ar
    57    25    21   ar
    58    32    27   ar
    59    38    39    1
    60     3     4    1
@<TRIPOS>MOLECULE
*****
 56 60 0 0 0
SMALL
GASTEIGER

@<TRIPOS>ATOM
      1 C          63.2027   88.9538   13.0643 C.2     1  UNL1        0.2404
      2 O          63.3870   89.4570   11.6633 O.2     1  UNL1       -0.2733
      3 N          62.7841   87.5332   13.3021 N.am    1  UNL1       -0.3042
      4 H          62.6631   87.2030   14.2216 H       1  UNL1        0.1494
      5 C          62.5496   86.6157   12.1387 C.3     1  UNL1        0.0777
      6 C          61.2217   86.6133   11.4411 C.3     1  UNL1        0.0415
      7 C          60.5987   87.9079   11.0100 C.3     1  UNL1        0.0988
      8 N          59.9184   88.0055    9.6767 N.am    1  UNL1       -0.2418
      9 C          59.6556   89.3498    9.0655 C.2     1  UNL1        0.4055
     10 O          60.0731   90.5966    9.7875 O.2     1  UNL1       -0.2262
     11 C          59.5010   86.7588    8.9547 C.3     1  UNL1        0.1234
     12 C          60.4817   86.0338    8.0815 C.ar    1  UNL1       -0.0022
     13 C          60.0087   85.3378    6.8398 C.ar    1  UNL1       -0.0017
     14 C          60.9895   84.6127    5.9666 C.ar    1  UNL1        0.0111
     15 C          62.4432   84.5836    6.3351 C.ar    1  UNL1        0.0577
     16 CL         63.4239   83.8586    5.4619 Cl      1  UNL1       -0.0822
     17 C          62.9162   85.2797    7.5769 C.ar    1  UNL1        0.0111
     18 C          61.9355   86.0047    8.4501 C.ar    1  UNL1       -0.0017
     19 O          58.9753   89.4475    7.7322 O.3     1  UNL1       -0.4289
     20 C          59.7926   89.5728    6.4806 C.3     1  UNL1        0.2447
     21 C          59.5069   90.6764    5.5057 C.ar    1  UNL1        0.0714
     22 C          58.1606   91.2723    5.2182 C.ar    1  UNL1        0.1053
     23 N          58.3390   92.3420    4.1819 N.ar    1  UNL1       -0.2350
     24 C          59.7955   92.4073    3.8289 C.ar    1  UNL1        0.1343
     25 S          60.5172   91.3779    4.6471 S.2     1  UNL1       -0.0652
     26 C          63.6431   85.7006   11.6731 C.3     1  UNL1        0.0459
     27 C          63.4041   84.2214   11.6030 C.ar    1  UNL1       -0.0205
     28 C          62.5739   83.5452   12.6535 C.ar    1  UNL1       -0.0042
     29 C          62.3350   82.0660   12.5833 C.ar    1  UNL1       -0.0003
     30 C          62.9262   81.2630   11.4627 C.ar    1  UNL1       -0.0000
     31 C          63.7564   81.9393   10.4123 C.ar    1  UNL1       -0.0003
     32 C          63.9953   83.4184   10.4823 C.ar    1  UNL1       -0.0042
     33 C          63.4371   89.8712   14.2276 C.3     1  UNL1        0.1511
     34 N          66.6129   92.2509   14.2683 N.am    1  UNL1       -0.2567
     35 C          68.0649   92.1978   14.6408 C.3     1  UNL1        0.1168
     36 C          65.7510   91.0345   14.4342 C.2     1  UNL1        0.3046
     37 O          66.3411   89.7650   14.9726 O.2     1  UNL1       -0.2526
     38 N          64.2990   91.0876   14.0617 N.am    1  UNL1       -0.2824
     39 H          63.9116   91.9209   13.7084 H       1  UNL1        0.1514
     40 C          66.0227   93.5205   13.7299 C.3     1  UNL1        0.1413
     41 C          67.2597   94.0493   10.0891 C.ar    1  UNL1        0.0875
     42 N          67.1148   93.1931   11.3122 N.ar    1  UNL1       -0.2453
     43 C          66.3836   93.9899   12.3517 C.ar    1  UNL1        0.0858
     44 C          66.0766   95.3384   11.7710 C.ar    1  UNL1        0.0530
     45 S          66.6181   95.3751   10.3726 S.2     1  UNL1       -0.0705
     46 C          67.8404   94.5423    7.6052 C.3     1  UNL1        0.0069
     47 C          67.9288   93.6497    8.8074 C.3     1  UNL1        0.0465
     48 C          68.6863   92.3574    8.7280 C.3     1  UNL1        0.0069
     49 C          62.8096   89.5723   15.5570 C.3     1  UNL1        0.0463
     50 C          63.4852   88.6322   16.5107 C.3     1  UNL1        0.0745
     51 N          63.5161   87.1612   16.2185 N.3     1  UNL1       -0.2684
     52 C          62.4148   86.2739   16.7182 C.3     1  UNL1        0.1046
     53 C          62.4457   84.8030   16.4259 C.3     1  UNL1        0.1595
     54 O          63.5781   84.2194   15.6339 O.3     1  UNL1       -0.3508
     55 C          64.6794   85.1067   15.1342 C.3     1  UNL1        0.1595
     56 C          64.6485   86.5776   15.4265 C.3     1  UNL1        0.1046
@<TRIPOS>BOND
     1    46    47    1
     2    47    48    1
     3    47    41    1
     4    41    42   ar
     5    42    43   ar
     6    43    40    1
     7    40    34    1
     8    34    35    1
     9    34    36   am
    10    36    37    2
    11    36    38   am
    12    38    33    1
    13    33    49    1
    14    49    50    1
    15    50    51    1
    16    51    52    1
    17    52    53    1
    18    53    54    1
    19    54    55    1
    20    55    56    1
    21    33     1    1
    22     1     2    2
    23     1     3   am
    24     3     5    1
    25     5     6    1
    26     6     7    1
    27     7     8    1
    28     8    11    1
    29    11    12    1
    30    12    13   ar
    31    13    14   ar
    32    14    15   ar
    33    15    16    1
    34    15    17   ar
    35    17    18   ar
    36     8     9   am
    37     9    10    2
    38     9    19    1
    39    19    20    1
    40    20    21    1
    41    21    22   ar
    42    22    23   ar
    43    23    24   ar
    44    24    25   ar
    45     5    26    1
    46    26    27    1
    47    27    28   ar
    48    28    29   ar
    49    29    30   ar
    50    30    31   ar
    51    31    32   ar
    52    43    44   ar
    53    44    45   ar
    54    45    41   ar
    55    56    51    1
    56    18    12   ar
    57    25    21   ar
    58    32    27   ar
    59    38    39    1
    60     3     4    1
@<TRIPOS>MOLECULE
*****
 56 60 0 0 0
SMALL
GASTEIGER

@<TRIPOS>ATOM
      1 C          63.9933   87.7952   13.8527 C.2     1  UNL1        0.2404
      2 O          64.8361   86.6259   14.2677 O.2     1  UNL1       -0.2733
      3 N          62.9313   87.6210   12.8079 N.am    1  UNL1       -0.3042
      4 H          62.3781   88.3884   12.5354 H       1  UNL1        0.1494
      5 C          62.7120   86.2773   12.1781 C.3     1  UNL1        0.0777
      6 C          61.4044   85.9653   11.5127 C.3     1  UNL1        0.0415
      7 C          61.2843   86.0467   10.0198 C.3     1  UNL1        0.0988
      8 N          60.4118   87.0938    9.3935 N.am    1  UNL1       -0.2418
      9 C          59.9136   86.9137    7.9902 C.2     1  UNL1        0.4055
     10 O          60.2879   85.6865    7.2131 O.2     1  UNL1       -0.2262
     11 C          60.0375   88.3210   10.1705 C.3     1  UNL1        0.1234
     12 C          61.0877   89.3290   10.5323 C.ar    1  UNL1       -0.0022
     13 C          62.1156   89.7377    9.5192 C.ar    1  UNL1       -0.0017
     14 C          63.1659   90.7457    9.8810 C.ar    1  UNL1        0.0111
     15 C          63.1883   91.3450   11.2558 C.ar    1  UNL1        0.0577
     16 CL         64.2385   92.3530   11.6176 Cl      1  UNL1       -0.0822
     17 C          62.1603   90.9363   12.2690 C.ar    1  UNL1        0.0111
     18 C          61.1101   89.9283   11.9072 C.ar    1  UNL1       -0.0017
     19 O          59.0410   87.9609    7.3639 O.3     1  UNL1       -0.4289
     20 C          59.6470   89.2342    6.8524 C.3     1  UNL1        0.2447
     21 C          58.8241   90.1771    6.0255 C.ar    1  UNL1        0.0714
     22 C          57.3267   90.1959    5.9376 C.ar    1  UNL1        0.1053
     23 N          56.9313   91.2972    4.9991 N.ar    1  UNL1       -0.2350
     24 C          58.1842   91.9591    4.5070 C.ar    1  UNL1        0.1343
     25 S          59.3540   91.2669    5.1414 S.2     1  UNL1       -0.0652
     26 C          63.8004   85.2457   12.2137 C.3     1  UNL1        0.0459
     27 C          63.4701   83.7992   11.9936 C.ar    1  UNL1       -0.0205
     28 C          63.8296   83.1366   10.6968 C.ar    1  UNL1       -0.0042
     29 C          63.4993   81.6901   10.4768 C.ar    1  UNL1       -0.0003
     30 C          62.8095   80.9061   11.5536 C.ar    1  UNL1       -0.0000
     31 C          62.4500   81.5686   12.8504 C.ar    1  UNL1       -0.0003
     32 C          62.7802   83.0151   13.0705 C.ar    1  UNL1       -0.0042
     33 C          64.2126   89.1388   14.4824 C.3     1  UNL1        0.1511
     34 N          66.6677   92.2395   14.1533 N.am    1  UNL1       -0.2567
     35 C          66.9354   93.5507   14.8307 C.3     1  UNL1        0.1168
     36 C          65.5740   91.3448   14.6566 C.2     1  UNL1        0.3046
     37 O          64.7480   91.7612   15.8373 O.2     1  UNL1       -0.2526
     38 N          65.3062   90.0336   13.9791 N.am    1  UNL1       -0.2824
     39 H          65.8484   89.7602   13.2041 H       1  UNL1        0.1514
     40 C          67.4936   91.8230   12.9725 C.3     1  UNL1        0.1413
     41 C          67.0662   94.4320   10.1306 C.ar    1  UNL1        0.0875
     42 N          66.9057   94.0170   11.5632 N.ar    1  UNL1       -0.2453
     43 C          67.4525   92.6275   11.7072 C.ar    1  UNL1        0.0858
     44 C          67.9507   92.1839   10.3637 C.ar    1  UNL1        0.0530
     45 S          67.7120   93.2991    9.3893 S.2     1  UNL1       -0.0705
     46 C          67.3434   96.2728    8.3184 C.3     1  UNL1        0.0069
     47 C          66.6533   95.7487    9.5427 C.3     1  UNL1        0.0465
     48 C          65.5502   96.5414   10.1791 C.3     1  UNL1        0.0069
     49 C          63.3381   89.5878   15.6154 C.3     1  UNL1        0.0463
     50 C          63.1799   88.7214   16.8296 C.3     1  UNL1        0.0745
     51 N          62.7840   87.2825   16.6778 N.3     1  UNL1       -0.2684
     52 C          63.8183   86.2031   16.8003 C.3     1  UNL1        0.1046
     53 C          63.4224   84.7643   16.6486 C.3     1  UNL1        0.1595
     54 O          61.9922   84.4049   16.3743 O.3     1  UNL1       -0.3508
     55 C          60.9578   85.4843   16.2518 C.3     1  UNL1        0.1595
     56 C          61.3538   86.9231   16.4035 C.3     1  UNL1        0.1046
@<TRIPOS>BOND
     1    46    47    1
     2    47    48    1
     3    47    41    1
     4    41    42   ar
     5    42    43   ar
     6    43    40    1
     7    40    34    1
     8    34    35    1
     9    34    36   am
    10    36    37    2
    11    36    38   am
    12    38    33    1
    13    33    49    1
    14    49    50    1
    15    50    51    1
    16    51    52    1
    17    52    53    1
    18    53    54    1
    19    54    55    1
    20    55    56    1
    21    33     1    1
    22     1     2    2
    23     1     3   am
    24     3     5    1
    25     5     6    1
    26     6     7    1
    27     7     8    1
    28     8    11    1
    29    11    12    1
    30    12    13   ar
    31    13    14   ar
    32    14    15   ar
    33    15    16    1
    34    15    17   ar
    35    17    18   ar
    36     8     9   am
    37     9    10    2
    38     9    19    1
    39    19    20    1
    40    20    21    1
    41    21    22   ar
    42    22    23   ar
    43    23    24   ar
    44    24    25   ar
    45     5    26    1
    46    26    27    1
    47    27    28   ar
    48    28    29   ar
    49    29    30   ar
    50    30    31   ar
    51    31    32   ar
    52    43    44   ar
    53    44    45   ar
    54    45    41   ar
    55    56    51    1
    56    18    12   ar
    57    25    21   ar
    58    32    27   ar
    59    38    39    1
    60     3     4    1
@<TRIPOS>MOLECULE
*****
 56 60 0 0 0
SMALL
GASTEIGER

@<TRIPOS>ATOM
      1 C          62.0898   86.6597   11.0457 C.2     1  UNL1        0.2404
      2 O          60.8204   86.9867   11.7748 O.2     1  UNL1       -0.2733
      3 N          62.8319   87.7369   10.3116 N.am    1  UNL1       -0.3042
      4 H          63.6650   87.5222    9.8330 H       1  UNL1        0.1494
      5 C          62.3045   89.1411   10.3065 C.3     1  UNL1        0.0777
      6 C          63.2543   90.2993   10.3873 C.3     1  UNL1        0.0415
      7 C          63.1419   91.2842   11.5130 C.3     1  UNL1        0.0988
      8 N          64.1946   91.3263   12.5807 N.am    1  UNL1       -0.2418
      9 C          64.3875   90.1495   13.4906 C.2     1  UNL1        0.4055
     10 O          63.5276   88.9306   13.3328 O.2     1  UNL1       -0.2262
     11 C          65.0545   92.5452   12.7385 C.3     1  UNL1        0.1234
     12 C          65.8179   93.0817   11.5641 C.ar    1  UNL1       -0.0022
     13 C          66.7952   92.2036   10.8403 C.ar    1  UNL1       -0.0017
     14 C          67.5586   92.7401    9.6658 C.ar    1  UNL1        0.0111
     15 C          67.3448   94.1547    9.2152 C.ar    1  UNL1        0.0577
     16 CL         68.1082   94.6912    8.0407 Cl      1  UNL1       -0.0822
     17 C          66.3675   95.0329    9.9390 C.ar    1  UNL1        0.0111
     18 C          65.6041   94.4964   11.1134 C.ar    1  UNL1       -0.0017
     19 O          65.4402   90.1916   14.5583 O.3     1  UNL1       -0.4289
     20 C          65.7006   91.4663   15.3050 C.3     1  UNL1        0.2447
     21 C          67.0489   92.1191   15.2270 C.ar    1  UNL1        0.0714
     22 C          68.1255   91.8025   14.2316 C.ar    1  UNL1        0.1053
     23 N          69.2992   92.6909   14.5202 N.ar    1  UNL1       -0.2350
     24 C          68.9480   93.5564   15.6939 C.ar    1  UNL1        0.1343
     25 S          67.5572   93.2030   16.1307 S.2     1  UNL1       -0.0652
     26 C          60.8273   89.3872   10.2205 C.3     1  UNL1        0.0459
     27 C          60.0747   89.0071    8.9800 C.ar    1  UNL1       -0.0205
     28 C          59.3551   87.6927    8.9124 C.ar    1  UNL1       -0.0042
     29 C          58.6024   87.3127    7.6717 C.ar    1  UNL1       -0.0003
     30 C          58.5693   88.2470    6.4988 C.ar    1  UNL1       -0.0000
     31 C          59.2888   89.5615    6.5664 C.ar    1  UNL1       -0.0003
     32 C          60.0415   89.9415    7.8070 C.ar    1  UNL1       -0.0042
     33 C          62.6172   85.2555   11.0508 C.3     1  UNL1        0.1511
     34 N          62.5799   82.0636   13.4088 N.am    1  UNL1       -0.2567
     35 C          62.9011   80.6000   13.3411 C.3     1  UNL1        0.1168
     36 C          62.7592   82.9278   12.1959 C.2     1  UNL1        0.3046
     37 O          63.2597   82.3283   10.9153 O.2     1  UNL1       -0.2526
     38 N          62.4379   84.3914   12.2637 N.am    1  UNL1       -0.2824
     39 H          62.1094   84.7848   13.1042 H       1  UNL1        0.1514
     40 C          62.0794   82.6631   14.6895 C.3     1  UNL1        0.1413
     41 C          63.1525   85.9288   16.4921 C.ar    1  UNL1        0.0875
     42 N          62.1159   84.8982   16.1552 N.ar    1  UNL1       -0.2453
     43 C          62.7538   83.8729   15.2652 C.ar    1  UNL1        0.0858
     44 C          64.1846   84.2699   15.0522 C.ar    1  UNL1        0.0530
     45 S          64.4310   85.5405   15.8104 S.2     1  UNL1       -0.0705
     46 C          63.0829   88.5105   16.7742 C.3     1  UNL1        0.0069
     47 C          62.9466   87.1358   17.3585 C.3     1  UNL1        0.0465
     48 C          62.6045   86.9680   18.8093 C.3     1  UNL1        0.0069
     49 C          63.3239   84.7154    9.8429 C.3     1  UNL1        0.0463
     50 C          63.3359   85.5029    8.5663 C.3     1  UNL1        0.0745
     51 N          62.5376   85.0318    7.3869 N.3     1  UNL1       -0.2684
     52 C          61.0399   84.9960    7.4611 C.3     1  UNL1        0.1046
     53 C          60.2417   84.5249    6.2817 C.3     1  UNL1        0.1595
     54 O          60.9413   84.0897    5.0282 O.3     1  UNL1       -0.3508
     55 C          62.4390   84.1255    4.9541 C.3     1  UNL1        0.1595
     56 C          63.2372   84.5966    6.1335 C.3     1  UNL1        0.1046
@<TRIPOS>BOND
     1    46    47    1
     2    47    48    1
     3    47    41    1
     4    41    42   ar
     5    42    43   ar
     6    43    40    1
     7    40    34    1
     8    34    35    1
     9    34    36   am
    10    36    37    2
    11    36    38   am
    12    38    33    1
    13    33    49    1
    14    49    50    1
    15    50    51    1
    16    51    52    1
    17    52    53    1
    18    53    54    1
    19    54    55    1
    20    55    56    1
    21    33     1    1
    22     1     2    2
    23     1     3   am
    24     3     5    1
    25     5     6    1
    26     6     7    1
    27     7     8    1
    28     8    11    1
    29    11    12    1
    30    12    13   ar
    31    13    14   ar
    32    14    15   ar
    33    15    16    1
    34    15    17   ar
    35    17    18   ar
    36     8     9   am
    37     9    10    2
    38     9    19    1
    39    19    20    1
    40    20    21    1
    41    21    22   ar
    42    22    23   ar
    43    23    24   ar
    44    24    25   ar
    45     5    26    1
    46    26    27    1
    47    27    28   ar
    48    28    29   ar
    49    29    30   ar
    50    30    31   ar
    51    31    32   ar
    52    43    44   ar
    53    44    45   ar
    54    45    41   ar
    55    56    51    1
    56    18    12   ar
    57    25    21   ar
    58    32    27   ar
    59    38    39    1
    60     3     4    1
@<TRIPOS>MOLECULE
*****
 56 60 0 0 0
SMALL
GASTEIGER

@<TRIPOS>ATOM
      1 C          64.4073   88.0381   14.4461 C.2     1  UNL1        0.2404
      2 O          65.3029   87.0403   15.1188 O.2     1  UNL1       -0.2733
      3 N          63.3971   87.5786   13.4371 N.am    1  UNL1       -0.3042
      4 H          62.8093   88.2334   12.9956 H       1  UNL1        0.1494
      5 C          63.2823   86.1212   13.1007 C.3     1  UNL1        0.0777
      6 C          62.5280   85.6910   11.8776 C.3     1  UNL1        0.0415
      7 C          61.1433   86.2114   11.6287 C.3     1  UNL1        0.0988
      8 N          60.9463   87.4716   10.8394 N.am    1  UNL1       -0.2418
      9 C          59.9981   88.5244   11.3317 C.2     1  UNL1        0.4055
     10 O          59.2469   88.3171   12.6134 O.2     1  UNL1       -0.2262
     11 C          61.6974   87.6789    9.5577 C.3     1  UNL1        0.1234
     12 C          61.6464   86.6356    8.4812 C.ar    1  UNL1       -0.0022
     13 C          60.3716   86.3974    7.7275 C.ar    1  UNL1       -0.0017
     14 C          60.3205   85.3541    6.6510 C.ar    1  UNL1        0.0111
     15 C          61.5442   84.5489    6.3282 C.ar    1  UNL1        0.0577
     16 CL         61.4931   83.5056    5.2517 Cl      1  UNL1       -0.0822
     17 C          62.8191   84.7871    7.0819 C.ar    1  UNL1        0.0111
     18 C          62.8702   85.8304    8.1584 C.ar    1  UNL1       -0.0017
     19 O          59.8011   89.7846   10.5423 O.3     1  UNL1       -0.4289
     20 C          60.9506   90.3846    9.7882 C.3     1  UNL1        0.2447
     21 C          62.1666   90.8590   10.5273 C.ar    1  UNL1        0.0714
     22 C          62.3817   90.7852   12.0100 C.ar    1  UNL1        0.1053
     23 N          63.7291   91.3710   12.3125 N.ar    1  UNL1       -0.2350
     24 C          64.3467   91.8068   11.0168 C.ar    1  UNL1        0.1343
     25 S          63.3810   91.4903    9.9135 S.2     1  UNL1       -0.0652
     26 C          63.9218   85.0942   13.9873 C.3     1  UNL1        0.0459
     27 C          63.5489   83.6479   13.8497 C.ar    1  UNL1       -0.0205
     28 C          62.3339   83.1166   14.5509 C.ar    1  UNL1       -0.0042
     29 C          61.9610   81.6702   14.4132 C.ar    1  UNL1       -0.0003
     30 C          62.8031   80.7551   13.5744 C.ar    1  UNL1       -0.0000
     31 C          64.0180   81.2864   12.8733 C.ar    1  UNL1       -0.0003
     32 C          64.3910   82.7327   13.0109 C.ar    1  UNL1       -0.0042
     33 C          64.5221   89.4953   14.7825 C.3     1  UNL1        0.1511
     34 N          67.1537   92.4231   14.2799 N.am    1  UNL1       -0.2567
     35 C          67.5470   93.7177   14.9274 C.3     1  UNL1        0.1168
     36 C          66.0346   91.6065   14.8550 C.2     1  UNL1        0.3046
     37 O          65.3088   92.0844   16.0776 O.2     1  UNL1       -0.2526
     38 N          65.6412   90.3119   14.2074 N.am    1  UNL1       -0.2824
     39 H          66.1175   89.9983   13.4049 H       1  UNL1        0.1514
     40 C          67.8794   91.9452   13.0573 C.3     1  UNL1        0.1413
     41 C          67.0694   94.3150   10.0918 C.ar    1  UNL1        0.0875
     42 N          67.0384   93.9908   11.5561 N.ar    1  UNL1       -0.2453
     43 C          67.6930   92.6550   11.7490 C.ar    1  UNL1        0.0858
     44 C          68.1286   92.1537   10.4041 C.ar    1  UNL1        0.0530
     45 S          67.7432   93.1796    9.3798 S.2     1  UNL1       -0.0705
     46 C          67.2018   96.1421    8.2496 C.3     1  UNL1        0.0069
     47 C          66.5225   95.5565    9.4520 C.3     1  UNL1        0.0465
     48 C          65.2964   96.2126   10.0145 C.3     1  UNL1        0.0069
     49 C          63.5177   90.1360   15.6939 C.3     1  UNL1        0.0463
     50 C          63.1236   89.4564   16.9717 C.3     1  UNL1        0.0745
     51 N          62.5314   88.0786   16.9367 N.3     1  UNL1       -0.2684
     52 C          63.2758   86.9266   17.5439 C.3     1  UNL1        0.1046
     53 C          62.6837   85.5490   17.5088 C.3     1  UNL1        0.1595
     54 O          61.3470   85.3232   16.8666 O.3     1  UNL1       -0.3508
     55 C          60.6026   86.4752   16.2594 C.3     1  UNL1        0.1595
     56 C          61.1948   87.8529   16.2944 C.3     1  UNL1        0.1046
@<TRIPOS>BOND
     1    46    47    1
     2    47    48    1
     3    47    41    1
     4    41    42   ar
     5    42    43   ar
     6    43    40    1
     7    40    34    1
     8    34    35    1
     9    34    36   am
    10    36    37    2
    11    36    38   am
    12    38    33    1
    13    33    49    1
    14    49    50    1
    15    50    51    1
    16    51    52    1
    17    52    53    1
    18    53    54    1
    19    54    55    1
    20    55    56    1
    21    33     1    1
    22     1     2    2
    23     1     3   am
    24     3     5    1
    25     5     6    1
    26     6     7    1
    27     7     8    1
    28     8    11    1
    29    11    12    1
    30    12    13   ar
    31    13    14   ar
    32    14    15   ar
    33    15    16    1
    34    15    17   ar
    35    17    18   ar
    36     8     9   am
    37     9    10    2
    38     9    19    1
    39    19    20    1
    40    20    21    1
    41    21    22   ar
    42    22    23   ar
    43    23    24   ar
    44    24    25   ar
    45     5    26    1
    46    26    27    1
    47    27    28   ar
    48    28    29   ar
    49    29    30   ar
    50    30    31   ar
    51    31    32   ar
    52    43    44   ar
    53    44    45   ar
    54    45    41   ar
    55    56    51    1
    56    18    12   ar
    57    25    21   ar
    58    32    27   ar
    59    38    39    1
    60     3     4    1
