@<TRIPOS>MOLECULE
*****
 21 23 0 0 0
SMALL
GASTEIGER

@<TRIPOS>ATOM
      1 C          61.3224   87.9853    9.3724 C.3     1  UNL1        0.0323
      2 C          62.5895   87.1890    9.4731 C.3     1  UNL1        0.0053
      3 C          62.6965   85.8597    8.7865 C.3     1  UNL1        0.0004
      4 C          61.5363   85.3266    7.9993 C.3     1  UNL1        0.0000
      5 C          60.2691   86.1229    7.8986 C.3     1  UNL1        0.0004
      6 C          60.1621   87.4523    8.5852 C.3     1  UNL1        0.0053
      7 C          62.1413   88.9060   10.2278 C.ar    1  UNL1       -0.0215
      8 C          62.4903   90.2780    9.7322 C.ar    1  UNL1       -0.0042
      9 C          63.3092   91.1988   10.5876 C.ar    1  UNL1       -0.0003
     10 C          63.7790   90.7474   11.9388 C.ar    1  UNL1       -0.0000
     11 C          64.5979   91.6680   12.7942 C.ar    1  UNL1       -0.0000
     12 C          65.0678   91.2166   14.1453 C.ar    1  UNL1       -0.0000
     13 C          64.7188   89.8446   14.6410 C.ar    1  UNL1       -0.0000
     14 C          63.8999   88.9239   13.7855 C.ar    1  UNL1       -0.0000
     15 C          63.4300   89.3753   12.4344 C.ar    1  UNL1       -0.0003
     16 C          62.6111   88.4546   11.5789 C.ar    1  UNL1       -0.0042
     17 C          59.9390   89.9611    8.4067 C.3     1  UNL1        0.0177
     18 C          60.3396   89.1013    9.5688 C.3     1  UNL1        0.0613
     19 N          59.7573   89.3576   10.9271 N.3     1  UNL1       -0.2713
     20 C          59.4829   90.7635   11.3725 C.3     1  UNL1        0.0896
     21 C          59.4493   88.2080   11.8402 C.3     1  UNL1        0.0896
@<TRIPOS>BOND
     1    17    18    1
     2    18    19    1
     3    19    20    1
     4    19    21    1
     5    18     1    1
     6     1     7    1
     7     7     8   ar
     8     8     9   ar
     9     9    10   ar
    10    10    11   ar
    11    11    12   ar
    12    12    13   ar
    13    13    14   ar
    14    14    15   ar
    15    15    16   ar
    16     1     2    1
    17     2     3    1
    18     3     4    1
    19     4     5    1
    20     5     6    1
    21     6     1    1
    22    16     7   ar
    23    15    10   ar
@<TRIPOS>MOLECULE
*****
 21 23 0 0 0
SMALL
GASTEIGER

@<TRIPOS>ATOM
      1 C          65.7147   91.7551   13.2522 C.3     1  UNL1        0.0323
      2 C          64.5139   91.8156   12.3553 C.3     1  UNL1        0.0053
      3 C          63.4180   90.8017   12.4999 C.3     1  UNL1        0.0004
      4 C          63.5229   89.7272   13.5413 C.3     1  UNL1        0.0000
      5 C          64.7238   89.6668   14.4381 C.3     1  UNL1        0.0004
      6 C          65.8197   90.6807   14.2936 C.3     1  UNL1        0.0053
      7 C          66.0697   92.9531   12.4221 C.ar    1  UNL1       -0.0215
      8 C          66.0374   94.3235   13.0309 C.ar    1  UNL1       -0.0042
      9 C          66.3924   95.5215   12.2008 C.ar    1  UNL1       -0.0003
     10 C          66.7796   95.3489   10.7620 C.ar    1  UNL1       -0.0000
     11 C          67.1346   96.5468    9.9319 C.ar    1  UNL1       -0.0000
     12 C          67.5218   96.3741    8.4931 C.ar    1  UNL1       -0.0000
     13 C          67.5540   95.0037    7.8843 C.ar    1  UNL1       -0.0000
     14 C          67.1990   93.8057    8.7143 C.ar    1  UNL1       -0.0000
     15 C          66.8118   93.9783   10.1532 C.ar    1  UNL1       -0.0003
     16 C          66.4569   92.7804   10.9833 C.ar    1  UNL1       -0.0042
     17 C          68.3085   91.8183   13.1175 C.3     1  UNL1        0.0177
     18 C          67.0388   92.1106   13.8608 C.3     1  UNL1        0.0613
     19 N          67.0932   92.7584   15.2126 N.3     1  UNL1       -0.2713
     20 C          68.3425   93.4584   15.6591 C.3     1  UNL1        0.0896
     21 C          65.8984   92.7062   16.1179 C.3     1  UNL1        0.0896
@<TRIPOS>BOND
     1    17    18    1
     2    18    19    1
     3    19    20    1
     4    19    21    1
     5    18     1    1
     6     1     7    1
     7     7     8   ar
     8     8     9   ar
     9     9    10   ar
    10    10    11   ar
    11    11    12   ar
    12    12    13   ar
    13    13    14   ar
    14    14    15   ar
    15    15    16   ar
    16     1     2    1
    17     2     3    1
    18     3     4    1
    19     4     5    1
    20     5     6    1
    21     6     1    1
    22    16     7   ar
    23    15    10   ar
@<TRIPOS>MOLECULE
*****
 21 23 0 0 0
SMALL
GASTEIGER

@<TRIPOS>ATOM
      1 C          60.9229   87.5445    9.1774 C.3     1  UNL1        0.0323
      2 C          60.3720   86.4169    8.3559 C.3     1  UNL1        0.0053
      3 C          59.2839   86.6785    7.3571 C.3     1  UNL1        0.0004
      4 C          58.7467   88.0677    7.1799 C.3     1  UNL1        0.0000
      5 C          59.2977   89.1953    8.0014 C.3     1  UNL1        0.0004
      6 C          60.3858   88.9338    9.0002 C.3     1  UNL1        0.0053
      7 C          61.7514   86.4101    9.7035 C.ar    1  UNL1       -0.0215
      8 C          62.6277   85.6264    8.7719 C.ar    1  UNL1       -0.0042
      9 C          63.4562   84.4919    9.2980 C.ar    1  UNL1       -0.0003
     10 C          63.4084   84.1412   10.7556 C.ar    1  UNL1       -0.0000
     11 C          64.2368   83.0068   11.2817 C.ar    1  UNL1       -0.0000
     12 C          64.1890   82.6562   12.7393 C.ar    1  UNL1       -0.0000
     13 C          63.3127   83.4399   13.6709 C.ar    1  UNL1       -0.0000
     14 C          62.4842   84.5744   13.1448 C.ar    1  UNL1       -0.0000
     15 C          62.5320   84.9250   11.6872 C.ar    1  UNL1       -0.0003
     16 C          61.7036   86.0594   11.1611 C.ar    1  UNL1       -0.0042
     17 C          63.2334   88.4491    9.9479 C.3     1  UNL1        0.0177
     18 C          61.7616   88.2782   10.1816 C.3     1  UNL1        0.0613
     19 N          61.1285   88.8410   11.4195 N.3     1  UNL1       -0.2713
     20 C          59.6866   88.5570   11.7199 C.3     1  UNL1        0.0896
     21 C          61.9372   89.6878   12.3569 C.3     1  UNL1        0.0896
@<TRIPOS>BOND
     1    17    18    1
     2    18    19    1
     3    19    20    1
     4    19    21    1
     5    18     1    1
     6     1     7    1
     7     7     8   ar
     8     8     9   ar
     9     9    10   ar
    10    10    11   ar
    11    11    12   ar
    12    12    13   ar
    13    13    14   ar
    14    14    15   ar
    15    15    16   ar
    16     1     2    1
    17     2     3    1
    18     3     4    1
    19     4     5    1
    20     5     6    1
    21     6     1    1
    22    16     7   ar
    23    15    10   ar
@<TRIPOS>MOLECULE
*****
 21 23 0 0 0
SMALL
GASTEIGER

@<TRIPOS>ATOM
      1 C          61.3362   87.9947    9.4381 C.3     1  UNL1        0.0323
      2 C          62.5256   87.0867    9.5418 C.3     1  UNL1        0.0053
      3 C          62.5468   85.7895    8.7889 C.3     1  UNL1        0.0004
      4 C          61.3785   85.4004    7.9322 C.3     1  UNL1        0.0000
      5 C          60.1891   86.3085    7.8286 C.3     1  UNL1        0.0004
      6 C          60.1680   87.6057    8.5815 C.3     1  UNL1        0.0053
      7 C          62.1950   88.7959   10.3713 C.ar    1  UNL1       -0.0215
      8 C          62.4601   88.2973   11.7609 C.ar    1  UNL1       -0.0042
      9 C          63.3189   89.0984   12.6941 C.ar    1  UNL1       -0.0003
     10 C          63.9125   90.3981   12.2376 C.ar    1  UNL1       -0.0000
     11 C          64.7712   91.1993   13.1707 C.ar    1  UNL1       -0.0000
     12 C          65.3648   92.4989   12.7142 C.ar    1  UNL1       -0.0000
     13 C          65.0997   92.9975   11.3246 C.ar    1  UNL1       -0.0000
     14 C          64.2410   92.1964   10.3914 C.ar    1  UNL1       -0.0000
     15 C          63.6474   90.8967   10.8479 C.ar    1  UNL1       -0.0003
     16 C          62.7886   90.0956    9.9148 C.ar    1  UNL1       -0.0042
     17 C          60.2077   90.1579    8.5452 C.3     1  UNL1        0.0177
     18 C          60.4451   89.1810    9.6585 C.3     1  UNL1        0.0613
     19 N          59.7913   89.3905   10.9922 N.3     1  UNL1       -0.2713
     20 C          59.4097   88.2092   11.8342 C.3     1  UNL1        0.0896
     21 C          59.5192   90.7812   11.4839 C.3     1  UNL1        0.0896
@<TRIPOS>BOND
     1    17    18    1
     2    18    19    1
     3    19    20    1
     4    19    21    1
     5    18     1    1
     6     1     7    1
     7     7     8   ar
     8     8     9   ar
     9     9    10   ar
    10    10    11   ar
    11    11    12   ar
    12    12    13   ar
    13    13    14   ar
    14    14    15   ar
    15    15    16   ar
    16     1     2    1
    17     2     3    1
    18     3     4    1
    19     4     5    1
    20     5     6    1
    21     6     1    1
    22    16     7   ar
    23    15    10   ar
@<TRIPOS>MOLECULE
*****
 21 23 0 0 0
SMALL
GASTEIGER

@<TRIPOS>ATOM
      1 C          65.0272   91.6475   13.5420 C.3     1  UNL1        0.0323
      2 C          64.0542   90.9486   12.6393 C.3     1  UNL1        0.0053
      3 C          63.8901   91.4020   11.2189 C.3     1  UNL1        0.0004
      4 C          64.6990   92.5542   10.7012 C.3     1  UNL1        0.0000
      5 C          65.6719   93.2531   11.6039 C.3     1  UNL1        0.0004
      6 C          65.8361   92.7997   13.0243 C.3     1  UNL1        0.0053
      7 C          64.4916   90.6132   14.4873 C.ar    1  UNL1       -0.0215
      8 C          63.7161   91.0353   15.6998 C.ar    1  UNL1       -0.0042
      9 C          63.1805   90.0010   16.6451 C.ar    1  UNL1       -0.0003
     10 C          63.4205   88.5447   16.3778 C.ar    1  UNL1       -0.0000
     11 C          62.8850   87.5104   17.3230 C.ar    1  UNL1       -0.0000
     12 C          63.1250   86.0541   17.0556 C.ar    1  UNL1       -0.0000
     13 C          63.9005   85.6320   15.8430 C.ar    1  UNL1       -0.0000
     14 C          64.4361   86.6663   14.8977 C.ar    1  UNL1       -0.0000
     15 C          64.1961   88.1226   15.1651 C.ar    1  UNL1       -0.0003
     16 C          64.7316   89.1569   14.2199 C.ar    1  UNL1       -0.0042
     17 C          65.1104   92.4930   15.9972 C.3     1  UNL1        0.0177
     18 C          65.8142   91.9872   14.7729 C.3     1  UNL1        0.0613
     19 N          67.3049   91.8211   14.7796 N.3     1  UNL1       -0.2713
     20 C          68.0844   92.0939   16.0318 C.3     1  UNL1        0.0896
     21 C          68.0162   91.3823   13.5341 C.3     1  UNL1        0.0896
@<TRIPOS>BOND
     1    17    18    1
     2    18    19    1
     3    19    20    1
     4    19    21    1
     5    18     1    1
     6     1     7    1
     7     7     8   ar
     8     8     9   ar
     9     9    10   ar
    10    10    11   ar
    11    11    12   ar
    12    12    13   ar
    13    13    14   ar
    14    14    15   ar
    15    15    16   ar
    16     1     2    1
    17     2     3    1
    18     3     4    1
    19     4     5    1
    20     5     6    1
    21     6     1    1
    22    16     7   ar
    23    15    10   ar
@<TRIPOS>MOLECULE
*****
 21 23 0 0 0
SMALL
GASTEIGER

@<TRIPOS>ATOM
      1 C          61.4255   86.9053    9.3006 C.3     1  UNL1        0.0323
      2 C          62.7372   86.1899    9.1691 C.3     1  UNL1        0.0053
      3 C          62.9536   85.2207    8.0450 C.3     1  UNL1        0.0004
      4 C          61.8580   84.9669    7.0523 C.3     1  UNL1        0.0000
      5 C          60.5462   85.6823    7.1838 C.3     1  UNL1        0.0004
      6 C          60.3299   86.6516    8.3080 C.3     1  UNL1        0.0053
      7 C          62.1532   87.4765   10.4814 C.ar    1  UNL1       -0.0215
      8 C          62.5220   86.5916   11.6350 C.ar    1  UNL1       -0.0042
      9 C          63.2497   87.1628   12.8158 C.ar    1  UNL1       -0.0003
     10 C          63.6085   88.6190   12.8430 C.ar    1  UNL1       -0.0000
     11 C          64.3362   89.1902   14.0237 C.ar    1  UNL1       -0.0000
     12 C          64.6950   90.6464   14.0509 C.ar    1  UNL1       -0.0000
     13 C          64.3262   91.5314   12.8973 C.ar    1  UNL1       -0.0000
     14 C          63.5985   90.9601   11.7165 C.ar    1  UNL1       -0.0000
     15 C          63.2397   89.5040   11.6893 C.ar    1  UNL1       -0.0003
     16 C          62.5120   88.9327   10.5086 C.ar    1  UNL1       -0.0042
     17 C          59.6351   87.4568   11.1008 C.3     1  UNL1        0.0177
     18 C          60.3663   87.8191    9.8422 C.3     1  UNL1        0.0613
     19 N          60.0385   89.0952    9.1252 N.3     1  UNL1       -0.2713
     20 C          59.9356   90.3808    9.8912 C.3     1  UNL1        0.0896
     21 C          59.8134   89.0857    7.6422 C.3     1  UNL1        0.0896
@<TRIPOS>BOND
     1    17    18    1
     2    18    19    1
     3    19    20    1
     4    19    21    1
     5    18     1    1
     6     1     7    1
     7     7     8   ar
     8     8     9   ar
     9     9    10   ar
    10    10    11   ar
    11    11    12   ar
    12    12    13   ar
    13    13    14   ar
    14    14    15   ar
    15    15    16   ar
    16     1     2    1
    17     2     3    1
    18     3     4    1
    19     4     5    1
    20     5     6    1
    21     6     1    1
    22    16     7   ar
    23    15    10   ar
@<TRIPOS>MOLECULE
*****
 21 23 0 0 0
SMALL
GASTEIGER

@<TRIPOS>ATOM
      1 C          63.2961   90.6854   11.8321 C.3     1  UNL1        0.0323
      2 C          63.7036   91.2517   10.5043 C.3     1  UNL1        0.0053
      3 C          64.7936   92.2795   10.4299 C.3     1  UNL1        0.0004
      4 C          65.4761   92.7410   11.6835 C.3     1  UNL1        0.0000
      5 C          65.0685   92.1745   13.0113 C.3     1  UNL1        0.0004
      6 C          63.9785   91.1467   13.0856 C.3     1  UNL1        0.0053
      7 C          62.3590   89.9369   10.9311 C.ar    1  UNL1       -0.0215
      8 C          61.0704   90.5700   10.4967 C.ar    1  UNL1       -0.0042
      9 C          60.1334   89.8216    9.5957 C.ar    1  UNL1       -0.0003
     10 C          60.4849   88.4401    9.1290 C.ar    1  UNL1       -0.0000
     11 C          59.5479   87.6916    8.2281 C.ar    1  UNL1       -0.0000
     12 C          59.8995   86.3101    7.7614 C.ar    1  UNL1       -0.0000
     13 C          61.1881   85.6770    8.1958 C.ar    1  UNL1       -0.0000
     14 C          62.1252   86.4254    9.0968 C.ar    1  UNL1       -0.0000
     15 C          61.7736   87.8069    9.5635 C.ar    1  UNL1       -0.0003
     16 C          62.7106   88.5554   10.4644 C.ar    1  UNL1       -0.0042
     17 C          61.0646   89.7973   12.8230 C.3     1  UNL1        0.0177
     18 C          62.5632   89.8591   12.8471 C.3     1  UNL1        0.0613
     19 N          63.3287   89.0946   13.8860 N.3     1  UNL1       -0.2713
     20 C          63.4559   89.6410   15.2772 C.3     1  UNL1        0.0896
     21 C          63.9671   87.7838   13.5338 C.3     1  UNL1        0.0896
@<TRIPOS>BOND
     1    17    18    1
     2    18    19    1
     3    19    20    1
     4    19    21    1
     5    18     1    1
     6     1     7    1
     7     7     8   ar
     8     8     9   ar
     9     9    10   ar
    10    10    11   ar
    11    11    12   ar
    12    12    13   ar
    13    13    14   ar
    14    14    15   ar
    15    15    16   ar
    16     1     2    1
    17     2     3    1
    18     3     4    1
    19     4     5    1
    20     5     6    1
    21     6     1    1
    22    16     7   ar
    23    15    10   ar
@<TRIPOS>MOLECULE
*****
 21 23 0 0 0
SMALL
GASTEIGER

@<TRIPOS>ATOM
      1 C          65.6657   92.0347   13.1372 C.3     1  UNL1        0.0323
      2 C          64.7268   91.4526   12.1226 C.3     1  UNL1        0.0053
      3 C          63.6836   90.4620   12.5474 C.3     1  UNL1        0.0004
      4 C          63.5795   90.0535   13.9870 C.3     1  UNL1        0.0000
      5 C          64.5184   90.6356   15.0016 C.3     1  UNL1        0.0004
      6 C          65.5616   91.6263   14.5767 C.3     1  UNL1        0.0053
      7 C          66.1550   92.7292   11.9009 C.ar    1  UNL1       -0.0215
      8 C          67.1552   92.0559   11.0086 C.ar    1  UNL1       -0.0042
      9 C          67.6445   92.7503    9.7723 C.ar    1  UNL1       -0.0003
     10 C          67.1336   94.1181    9.4284 C.ar    1  UNL1       -0.0000
     11 C          67.6229   94.8126    8.1922 C.ar    1  UNL1       -0.0000
     12 C          67.1120   96.1803    7.8483 C.ar    1  UNL1       -0.0000
     13 C          66.1118   96.8536    8.7406 C.ar    1  UNL1       -0.0000
     14 C          65.6225   96.1591    9.9769 C.ar    1  UNL1       -0.0000
     15 C          66.1334   94.7914   10.3208 C.ar    1  UNL1       -0.0003
     16 C          65.6441   94.0969   11.5570 C.ar    1  UNL1       -0.0042
     17 C          66.6036   94.3393   13.8850 C.3     1  UNL1        0.0177
     18 C          66.7746   92.8580   13.7225 C.3     1  UNL1        0.0613
     19 N          68.0545   92.2000   14.1453 N.3     1  UNL1       -0.2713
     20 C          68.4482   92.1861   15.5927 C.3     1  UNL1        0.0896
     21 C          68.9407   91.5558   13.1208 C.3     1  UNL1        0.0896
@<TRIPOS>BOND
     1    17    18    1
     2    18    19    1
     3    19    20    1
     4    19    21    1
     5    18     1    1
     6     1     7    1
     7     7     8   ar
     8     8     9   ar
     9     9    10   ar
    10    10    11   ar
    11    11    12   ar
    12    12    13   ar
    13    13    14   ar
    14    14    15   ar
    15    15    16   ar
    16     1     2    1
    17     2     3    1
    18     3     4    1
    19     4     5    1
    20     5     6    1
    21     6     1    1
    22    16     7   ar
    23    15    10   ar
@<TRIPOS>MOLECULE
*****
 21 23 0 0 0
SMALL
GASTEIGER

@<TRIPOS>ATOM
      1 C          63.4609   83.9941   13.2927 C.3     1  UNL1        0.0323
      2 C          62.8990   83.7085   11.9316 C.3     1  UNL1        0.0053
      3 C          62.7257   82.2905   11.4742 C.3     1  UNL1        0.0004
      4 C          63.1142   81.1581   12.3780 C.3     1  UNL1        0.0000
      5 C          63.6761   81.4438   13.7391 C.3     1  UNL1        0.0004
      6 C          63.8494   82.8618   14.1965 C.3     1  UNL1        0.0053
      7 C          63.2410   85.3946   12.8026 C.ar    1  UNL1       -0.0215
      8 C          62.4277   85.6374   11.5659 C.ar    1  UNL1       -0.0042
      9 C          62.2078   87.0379   11.0757 C.ar    1  UNL1       -0.0003
     10 C          62.8012   88.1957   11.8224 C.ar    1  UNL1       -0.0000
     11 C          62.5813   89.5962   11.3323 C.ar    1  UNL1       -0.0000
     12 C          63.1747   90.7539   12.0790 C.ar    1  UNL1       -0.0000
     13 C          63.9880   90.5111   13.3157 C.ar    1  UNL1       -0.0000
     14 C          64.2079   89.1106   13.8059 C.ar    1  UNL1       -0.0000
     15 C          63.6145   87.9529   13.0592 C.ar    1  UNL1       -0.0003
     16 C          63.8344   86.5524   13.5493 C.ar    1  UNL1       -0.0042
     17 C          65.3890   85.1651   14.5815 C.3     1  UNL1        0.0177
     18 C          63.9464   84.7661   14.4837 C.3     1  UNL1        0.0613
     19 N          62.9893   85.1391   15.5767 N.3     1  UNL1       -0.2713
     20 C          63.4289   86.0588   16.6771 C.3     1  UNL1        0.0896
     21 C          61.5925   84.5924   15.5694 C.3     1  UNL1        0.0896
@<TRIPOS>BOND
     1    17    18    1
     2    18    19    1
     3    19    20    1
     4    19    21    1
     5    18     1    1
     6     1     7    1
     7     7     8   ar
     8     8     9   ar
     9     9    10   ar
    10    10    11   ar
    11    11    12   ar
    12    12    13   ar
    13    13    14   ar
    14    14    15   ar
    15    15    16   ar
    16     1     2    1
    17     2     3    1
    18     3     4    1
    19     4     5    1
    20     5     6    1
    21     6     1    1
    22    16     7   ar
    23    15    10   ar
