@<TRIPOS>MOLECULE
*****
 29 32 0 0 0
SMALL
GASTEIGER

@<TRIPOS>ATOM
      1 N          59.8241   88.5389   10.6755 N.pl3   1  UNL1       -0.3039
      2 H          58.8627   88.3821   10.8184 H       1  UNL1        0.1496
      3 C          60.3633   87.5141    7.9080 C.3     1  UNL1        0.1363
      4 N          61.0211   86.8650    9.0896 N.ar    1  UNL1       -0.2669
      5 C          60.7515   87.3774   10.4733 C.ar    1  UNL1        0.2002
      6 N          61.4093   86.7284   11.6549 N.ar    1  UNL1       -0.2150
      7 C          62.3367   85.5668   11.4527 C.ar    1  UNL1        0.0895
      8 C          62.9945   84.9178   12.6342 C.ar    1  UNL1        0.0307
      9 C          63.9219   83.7563   12.4319 C.ar    1  UNL1        0.0592
     10 CL         64.5797   83.1072   13.6135 Cl      1  UNL1       -0.0822
     11 C          64.1915   83.2439   11.0482 C.ar    1  UNL1        0.0116
     12 C          63.5337   83.8930    9.8667 C.ar    1  UNL1        0.0071
     13 C          62.6063   85.0544   10.0689 C.ar    1  UNL1        0.0740
     14 C          61.9485   85.7035    8.8874 C.ar    1  UNL1        0.2643
     15 O          62.2181   85.1911    7.5036 O.2     1  UNL1       -0.2668
     16 C          60.3614   89.9392   10.6600 C.3     1  UNL1        0.0942
     17 C          61.7477   90.2050   10.1526 C.3     1  UNL1        0.0476
     18 C          62.8267   90.6279   11.1050 C.ar    1  UNL1       -0.0204
     19 C          63.8543   91.6328   10.6758 C.ar    1  UNL1       -0.0029
     20 C          64.9333   92.0557   11.6281 C.ar    1  UNL1        0.0142
     21 C          64.9846   91.4738   13.0096 C.ar    1  UNL1        0.0480
     22 C          63.9570   90.4689   13.4389 C.ar    1  UNL1        0.0142
     23 C          62.8780   90.0460   12.4866 C.ar    1  UNL1       -0.0029
     24 N          66.0636   91.8967   13.9620 N.pl3   1  UNL1       -0.3028
     25 C          65.7173   92.2529   15.3774 C.3     1  UNL1        0.1231
     26 C          66.7962   92.6758   16.3298 C.3     1  UNL1        0.1636
     27 O          68.2215   92.7426   15.8668 O.3     1  UNL1       -0.3501
     28 C          68.5677   92.3865   14.4515 C.3     1  UNL1        0.1636
     29 C          67.4887   91.9635   13.4991 C.3     1  UNL1        0.1231
@<TRIPOS>BOND
     1     3     4    1
     2     4     5   ar
     3     5     1    1
     4     1    16    1
     5    16    17    1
     6    17    18    1
     7    18    19   ar
     8    19    20   ar
     9    20    21   ar
    10    21    24    1
    11    24    25    1
    12    25    26    1
    13    26    27    1
    14    27    28    1
    15    28    29    1
    16    21    22   ar
    17    22    23   ar
    18     5     6   ar
    19     6     7   ar
    20     7     8   ar
    21     8     9   ar
    22     9    10    1
    23     9    11   ar
    24    11    12   ar
    25    12    13   ar
    26    13    14   ar
    27    14    15    2
    28    14     4   ar
    29    23    18   ar
    30    13     7   ar
    31    29    24    1
    32     1     2    1
@<TRIPOS>MOLECULE
*****
 29 32 0 0 0
SMALL
GASTEIGER

@<TRIPOS>ATOM
      1 N          59.7867   88.4846   10.6796 N.pl3   1  UNL1       -0.3039
      2 H          58.8270   88.3153   10.8193 H       1  UNL1        0.1496
      3 C          60.3507   87.4937    7.9048 C.3     1  UNL1        0.1363
      4 N          61.0103   86.8403    9.0830 N.ar    1  UNL1       -0.2669
      5 C          60.7283   87.3358   10.4705 C.ar    1  UNL1        0.2002
      6 N          61.3878   86.6826   11.6487 N.ar    1  UNL1       -0.2150
      7 C          62.3294   85.5337   11.4395 C.ar    1  UNL1        0.0895
      8 C          62.9889   84.8805   12.6177 C.ar    1  UNL1        0.0307
      9 C          63.9305   83.7317   12.4085 C.ar    1  UNL1        0.0592
     10 CL         64.5900   83.0784   13.5868 Cl      1  UNL1       -0.0822
     11 C          64.2125   83.2362   11.0211 C.ar    1  UNL1        0.0116
     12 C          63.5530   83.8895    9.8429 C.ar    1  UNL1        0.0071
     13 C          62.6114   85.0383   10.0521 C.ar    1  UNL1        0.0740
     14 C          61.9519   85.6916    8.8738 C.ar    1  UNL1        0.2643
     15 O          62.2339   85.1961    7.4864 O.2     1  UNL1       -0.2668
     16 C          60.3073   89.8913   10.6760 C.3     1  UNL1        0.0942
     17 C          61.6842   90.1801   10.1556 C.3     1  UNL1        0.0476
     18 C          62.7687   90.6067   11.1000 C.ar    1  UNL1       -0.0204
     19 C          62.8350   90.0214   12.4796 C.ar    1  UNL1       -0.0029
     20 C          63.9195   90.4480   13.4240 C.ar    1  UNL1        0.0142
     21 C          64.9376   91.4599   12.9888 C.ar    1  UNL1        0.0480
     22 C          64.8714   92.0452   11.6093 C.ar    1  UNL1        0.0142
     23 C          63.7869   91.6186   10.6649 C.ar    1  UNL1       -0.0029
     24 N          66.0222   91.8866   13.9333 N.pl3   1  UNL1       -0.3028
     25 C          67.4443   91.9541   13.4609 C.3     1  UNL1        0.1231
     26 C          68.5288   92.3807   14.4052 C.3     1  UNL1        0.1636
     27 O          68.1912   92.7398   15.8220 O.3     1  UNL1       -0.3501
     28 C          66.7691   92.6723   16.2944 C.3     1  UNL1        0.1636
     29 C          65.6846   92.2456   15.3500 C.3     1  UNL1        0.1231
@<TRIPOS>BOND
     1     3     4    1
     2     4     5   ar
     3     5     1    1
     4     1    16    1
     5    16    17    1
     6    17    18    1
     7    18    19   ar
     8    19    20   ar
     9    20    21   ar
    10    21    24    1
    11    24    25    1
    12    25    26    1
    13    26    27    1
    14    27    28    1
    15    28    29    1
    16    21    22   ar
    17    22    23   ar
    18     5     6   ar
    19     6     7   ar
    20     7     8   ar
    21     8     9   ar
    22     9    10    1
    23     9    11   ar
    24    11    12   ar
    25    12    13   ar
    26    13    14   ar
    27    14    15    2
    28    14     4   ar
    29    23    18   ar
    30    13     7   ar
    31    29    24    1
    32     1     2    1
@<TRIPOS>MOLECULE
*****
 29 32 0 0 0
SMALL
GASTEIGER

@<TRIPOS>ATOM
      1 N          59.7957   88.2675   11.3601 N.pl3   1  UNL1       -0.3039
      2 H          58.8211   88.1320   11.3275 H       1  UNL1        0.1496
      3 C          60.1952   87.8372    8.4182 C.3     1  UNL1        0.1363
      4 N          60.9193   86.9731    9.4076 N.ar    1  UNL1       -0.2669
      5 C          60.7196   87.1882   10.8786 C.ar    1  UNL1        0.2002
      6 N          61.4436   86.3242   11.8681 N.ar    1  UNL1       -0.2150
      7 C          62.3675   85.2449   11.3866 C.ar    1  UNL1        0.0895
      8 C          63.0915   84.3809   12.3761 C.ar    1  UNL1        0.0307
      9 C          64.0153   83.3017   11.8946 C.ar    1  UNL1        0.0592
     10 CL         64.7395   82.4376   12.8841 Cl      1  UNL1       -0.0822
     11 C          64.2151   83.0865   10.4236 C.ar    1  UNL1        0.0116
     12 C          63.4910   83.9506    9.4341 C.ar    1  UNL1        0.0071
     13 C          62.5672   85.0298    9.9156 C.ar    1  UNL1        0.0740
     14 C          61.8431   85.8939    8.9261 C.ar    1  UNL1        0.2643
     15 O          62.0428   85.6788    7.4551 O.2     1  UNL1       -0.2668
     16 C          60.3568   89.5532   11.8913 C.3     1  UNL1        0.0942
     17 C          61.6954   89.5644   12.5679 C.3     1  UNL1        0.0476
     18 C          62.7879   90.4549   12.0545 C.ar    1  UNL1       -0.0204
     19 C          63.8295   90.9831   12.9957 C.ar    1  UNL1       -0.0029
     20 C          64.9220   91.8736   12.4823 C.ar    1  UNL1        0.0142
     21 C          64.9727   92.2359   11.0277 C.ar    1  UNL1        0.0480
     22 C          63.9311   91.7077   10.0864 C.ar    1  UNL1        0.0142
     23 C          62.8386   90.8173   10.5998 C.ar    1  UNL1       -0.0029
     24 N          66.0652   93.1264   10.5142 N.pl3   1  UNL1       -0.3028
     25 C          67.3128   92.5263    9.9369 C.3     1  UNL1        0.1231
     26 C          68.4053   93.4167    9.4235 C.3     1  UNL1        0.1636
     27 O          68.2501   94.9073    9.4873 O.3     1  UNL1       -0.3501
     28 C          67.0025   95.5075   10.0645 C.3     1  UNL1        0.1636
     29 C          65.9100   94.6169   10.5780 C.3     1  UNL1        0.1231
@<TRIPOS>BOND
     1     3     4    1
     2     4     5   ar
     3     5     1    1
     4     1    16    1
     5    16    17    1
     6    17    18    1
     7    18    19   ar
     8    19    20   ar
     9    20    21   ar
    10    21    24    1
    11    24    25    1
    12    25    26    1
    13    26    27    1
    14    27    28    1
    15    28    29    1
    16    21    22   ar
    17    22    23   ar
    18     5     6   ar
    19     6     7   ar
    20     7     8   ar
    21     8     9   ar
    22     9    10    1
    23     9    11   ar
    24    11    12   ar
    25    12    13   ar
    26    13    14   ar
    27    14    15    2
    28    14     4   ar
    29    23    18   ar
    30    13     7   ar
    31    29    24    1
    32     1     2    1
@<TRIPOS>MOLECULE
*****
 29 32 0 0 0
SMALL
GASTEIGER

@<TRIPOS>ATOM
      1 N          64.2843   87.9646   14.4250 N.pl3   1  UNL1       -0.3039
      2 H          65.2437   87.7662   14.5225 H       1  UNL1        0.1496
      3 C          64.1075   84.9980   14.0154 C.3     1  UNL1        0.1363
      4 N          63.4306   85.9295   13.0540 N.ar    1  UNL1       -0.2669
      5 C          63.5190   87.4128   13.2588 C.ar    1  UNL1        0.2002
      6 N          62.8422   88.3443   12.2975 N.ar    1  UNL1       -0.2150
      7 C          62.0768   87.7925   11.1313 C.ar    1  UNL1        0.0895
      8 C          61.4000   88.7240   10.1700 C.ar    1  UNL1        0.0307
      9 C          60.6347   88.1721    9.0039 C.ar    1  UNL1        0.0592
     10 CL         59.9578   89.1036    8.0426 Cl      1  UNL1       -0.0822
     11 C          60.5463   86.6888    8.7992 C.ar    1  UNL1        0.0116
     12 C          61.2231   85.7573    9.7605 C.ar    1  UNL1        0.0071
     13 C          61.9884   86.3092   10.9266 C.ar    1  UNL1        0.0740
     14 C          62.6653   85.3777   11.8880 C.ar    1  UNL1        0.2643
     15 O          62.5769   83.8943   11.6832 O.2     1  UNL1       -0.2668
     16 C          63.5880   88.8188   15.4425 C.3     1  UNL1        0.0942
     17 C          63.9632   90.2634   15.5921 C.3     1  UNL1        0.0476
     18 C          64.6536   90.9792   14.4691 C.ar    1  UNL1       -0.0204
     19 C          63.9230   91.2418   13.1856 C.ar    1  UNL1       -0.0029
     20 C          64.6133   91.9576   12.0627 C.ar    1  UNL1        0.0142
     21 C          66.0341   92.4108   12.2232 C.ar    1  UNL1        0.0480
     22 C          66.7647   92.1481   13.5067 C.ar    1  UNL1        0.0142
     23 C          66.0744   91.4323   14.6296 C.ar    1  UNL1       -0.0029
     24 N          66.7245   93.1266   11.1002 N.pl3   1  UNL1       -0.3028
     25 C          67.6334   92.3717   10.1760 C.3     1  UNL1        0.1231
     26 C          68.3238   93.0875    9.0530 C.3     1  UNL1        0.1636
     27 O          68.1052   94.5581    8.8542 O.3     1  UNL1       -0.3501
     28 C          67.1964   95.3130    9.7784 C.3     1  UNL1        0.1636
     29 C          66.5060   94.5972   10.9014 C.3     1  UNL1        0.1231
@<TRIPOS>BOND
     1     3     4    1
     2     4     5   ar
     3     5     1    1
     4     1    16    1
     5    16    17    1
     6    17    18    1
     7    18    19   ar
     8    19    20   ar
     9    20    21   ar
    10    21    24    1
    11    24    25    1
    12    25    26    1
    13    26    27    1
    14    27    28    1
    15    28    29    1
    16    21    22   ar
    17    22    23   ar
    18     5     6   ar
    19     6     7   ar
    20     7     8   ar
    21     8     9   ar
    22     9    10    1
    23     9    11   ar
    24    11    12   ar
    25    12    13   ar
    26    13    14   ar
    27    14    15    2
    28    14     4   ar
    29    23    18   ar
    30    13     7   ar
    31    29    24    1
    32     1     2    1
@<TRIPOS>MOLECULE
*****
 29 32 0 0 0
SMALL
GASTEIGER

@<TRIPOS>ATOM
      1 N          63.3587   88.7815   13.2586 N.pl3   1  UNL1       -0.3039
      2 H          62.9339   89.5686   12.8472 H       1  UNL1        0.1496
      3 C          62.1620   88.5075   10.5213 C.3     1  UNL1        0.1363
      4 N          62.5520   87.2831   11.2953 N.ar    1  UNL1       -0.2669
      5 C          63.1503   87.4202   12.6640 C.ar    1  UNL1        0.2002
      6 N          63.5403   86.1959   13.4380 N.ar    1  UNL1       -0.2150
      7 C          63.3319   84.8346   12.8434 C.ar    1  UNL1        0.0895
      8 C          63.7219   83.6104   13.6174 C.ar    1  UNL1        0.0307
      9 C          63.5135   82.2492   13.0228 C.ar    1  UNL1        0.0592
     10 CL         63.9035   81.0249   13.7969 Cl      1  UNL1       -0.0822
     11 C          62.9151   82.1122   11.6542 C.ar    1  UNL1        0.0116
     12 C          62.5252   83.3364   10.8801 C.ar    1  UNL1        0.0071
     13 C          62.7336   84.6976   11.4747 C.ar    1  UNL1        0.0740
     14 C          62.3436   85.9219   10.7007 C.ar    1  UNL1        0.2643
     15 O          61.7453   85.7849    9.3320 O.2     1  UNL1       -0.2668
     16 C          64.2144   88.9435   14.4799 C.3     1  UNL1        0.0942
     17 C          64.6125   90.3144   14.9402 C.3     1  UNL1        0.0476
     18 C          65.0891   91.3307   13.9451 C.ar    1  UNL1       -0.0204
     19 C          64.5378   91.3304   12.5501 C.ar    1  UNL1       -0.0029
     20 C          65.0144   92.3466   11.5551 C.ar    1  UNL1        0.0142
     21 C          66.0422   93.3632   11.9551 C.ar    1  UNL1        0.0480
     22 C          66.5935   93.3636   13.3501 C.ar    1  UNL1        0.0142
     23 C          66.1169   92.3473   14.3451 C.ar    1  UNL1       -0.0029
     24 N          66.5188   94.3795   10.9600 N.pl3   1  UNL1       -0.3028
     25 C          66.2563   95.8378   11.1931 C.3     1  UNL1        0.1231
     26 C          66.7328   96.8541   10.1982 C.3     1  UNL1        0.1636
     27 O          67.4720   96.4121    8.9700 O.3     1  UNL1       -0.3501
     28 C          67.7346   94.9538    8.7369 C.3     1  UNL1        0.1636
     29 C          67.2580   93.9375    9.7319 C.3     1  UNL1        0.1231
@<TRIPOS>BOND
     1     3     4    1
     2     4     5   ar
     3     5     1    1
     4     1    16    1
     5    16    17    1
     6    17    18    1
     7    18    19   ar
     8    19    20   ar
     9    20    21   ar
    10    21    24    1
    11    24    25    1
    12    25    26    1
    13    26    27    1
    14    27    28    1
    15    28    29    1
    16    21    22   ar
    17    22    23   ar
    18     5     6   ar
    19     6     7   ar
    20     7     8   ar
    21     8     9   ar
    22     9    10    1
    23     9    11   ar
    24    11    12   ar
    25    12    13   ar
    26    13    14   ar
    27    14    15    2
    28    14     4   ar
    29    23    18   ar
    30    13     7   ar
    31    29    24    1
    32     1     2    1
@<TRIPOS>MOLECULE
*****
 29 32 0 0 0
SMALL
GASTEIGER

@<TRIPOS>ATOM
      1 N          61.4142   86.9291    9.2289 N.pl3   1  UNL1       -0.3039
      2 H          61.6033   86.9495    8.2630 H       1  UNL1        0.1496
      3 C          63.1939   84.8440    8.0104 C.3     1  UNL1        0.1363
      4 N          62.9772   84.8708    9.4945 N.ar    1  UNL1       -0.2669
      5 C          62.0874   85.9134   10.1038 C.ar    1  UNL1        0.2002
      6 N          61.8707   85.9403   11.5877 N.ar    1  UNL1       -0.2150
      7 C          62.5439   84.9245   12.4626 C.ar    1  UNL1        0.0895
      8 C          62.3272   84.9514   13.9465 C.ar    1  UNL1        0.0307
      9 C          63.0003   83.9357   14.8213 C.ar    1  UNL1        0.0592
     10 CL         62.7837   83.9626   16.3053 Cl      1  UNL1       -0.0822
     11 C          63.8902   82.8932   14.2120 C.ar    1  UNL1        0.0116
     12 C          64.1069   82.8663   12.7280 C.ar    1  UNL1        0.0071
     13 C          63.4337   83.8820   11.8533 C.ar    1  UNL1        0.0740
     14 C          63.6504   83.8551   10.3692 C.ar    1  UNL1        0.2643
     15 O          64.5402   82.8125    9.7599 O.2     1  UNL1       -0.2668
     16 C          60.4530   87.9138    9.8259 C.3     1  UNL1        0.0942
     17 C          60.7362   89.3843    9.7408 C.3     1  UNL1        0.0476
     18 C          61.8332   89.9859   10.5684 C.ar    1  UNL1       -0.0204
     19 C          62.7755   90.9796    9.9563 C.ar    1  UNL1       -0.0029
     20 C          63.8725   91.5812   10.7838 C.ar    1  UNL1        0.0142
     21 C          64.0271   91.1892   12.2234 C.ar    1  UNL1        0.0480
     22 C          63.0847   90.1955   12.8354 C.ar    1  UNL1        0.0142
     23 C          61.9878   89.5939   12.0079 C.ar    1  UNL1       -0.0029
     24 N          65.1240   91.7908   13.0509 N.pl3   1  UNL1       -0.3028
     25 C          65.6404   91.0617   14.2558 C.3     1  UNL1        0.1231
     26 C          66.7373   91.6633   15.0834 C.3     1  UNL1        0.1636
     27 O          67.3179   92.9939   14.7060 O.3     1  UNL1       -0.3501
     28 C          66.8015   93.7230   13.5011 C.3     1  UNL1        0.1636
     29 C          65.7045   93.1214   12.6736 C.3     1  UNL1        0.1231
@<TRIPOS>BOND
     1     3     4    1
     2     4     5   ar
     3     5     1    1
     4     1    16    1
     5    16    17    1
     6    17    18    1
     7    18    19   ar
     8    19    20   ar
     9    20    21   ar
    10    21    24    1
    11    24    25    1
    12    25    26    1
    13    26    27    1
    14    27    28    1
    15    28    29    1
    16    21    22   ar
    17    22    23   ar
    18     5     6   ar
    19     6     7   ar
    20     7     8   ar
    21     8     9   ar
    22     9    10    1
    23     9    11   ar
    24    11    12   ar
    25    12    13   ar
    26    13    14   ar
    27    14    15    2
    28    14     4   ar
    29    23    18   ar
    30    13     7   ar
    31    29    24    1
    32     1     2    1
@<TRIPOS>MOLECULE
*****
 29 32 0 0 0
SMALL
GASTEIGER

@<TRIPOS>ATOM
      1 N          60.4145   90.1053    9.6807 N.pl3   1  UNL1       -0.3039
      2 H          59.7240   90.7792    9.4853 H       1  UNL1        0.1496
      3 C          60.2383   89.3156   12.5695 C.3     1  UNL1        0.1363
      4 N          61.4508   90.0386   12.0622 N.ar    1  UNL1       -0.2669
      5 C          61.5389   90.4334   10.6178 C.ar    1  UNL1        0.2002
      6 N          62.7513   91.1562   10.1104 N.ar    1  UNL1       -0.2150
      7 C          63.8758   91.4843   11.0475 C.ar    1  UNL1        0.0895
      8 C          65.0882   92.2072   10.5402 C.ar    1  UNL1        0.0307
      9 C          66.2125   92.5352   11.4773 C.ar    1  UNL1        0.0592
     10 CL         67.4251   93.2582   10.9700 Cl      1  UNL1       -0.0822
     11 C          66.1244   92.1404   12.9217 C.ar    1  UNL1        0.0116
     12 C          64.9120   91.4176   13.4291 C.ar    1  UNL1        0.0071
     13 C          63.7877   91.0895   12.4920 C.ar    1  UNL1        0.0740
     14 C          62.5752   90.3666   12.9993 C.ar    1  UNL1        0.2643
     15 O          62.4871   89.9718   14.4437 O.2     1  UNL1       -0.2668
     16 C          60.3422   88.7503    9.0413 C.3     1  UNL1        0.0942
     17 C          61.6001   87.9761    8.7804 C.3     1  UNL1        0.0476
     18 C          61.9516   86.8024    9.6458 C.ar    1  UNL1       -0.0204
     19 C          61.5588   86.7937   11.0934 C.ar    1  UNL1       -0.0029
     20 C          61.9102   85.6201   11.9589 C.ar    1  UNL1        0.0142
     21 C          62.6545   84.4551   11.3767 C.ar    1  UNL1        0.0480
     22 C          63.0473   84.4638    9.9291 C.ar    1  UNL1        0.0142
     23 C          62.6958   85.6374    9.0636 C.ar    1  UNL1       -0.0029
     24 N          63.0060   83.2814   12.2422 N.pl3   1  UNL1       -0.3028
     25 C          62.7672   81.8860   11.7465 C.3     1  UNL1        0.1231
     26 C          63.1187   80.7123   12.6119 C.3     1  UNL1        0.1636
     27 O          63.7089   80.9340   13.9730 O.3     1  UNL1       -0.3501
     28 C          63.9476   82.3295   14.4687 C.3     1  UNL1        0.1636
     29 C          63.5961   83.5032   13.6032 C.3     1  UNL1        0.1231
@<TRIPOS>BOND
     1     3     4    1
     2     4     5   ar
     3     5     1    1
     4     1    16    1
     5    16    17    1
     6    17    18    1
     7    18    19   ar
     8    19    20   ar
     9    20    21   ar
    10    21    24    1
    11    24    25    1
    12    25    26    1
    13    26    27    1
    14    27    28    1
    15    28    29    1
    16    21    22   ar
    17    22    23   ar
    18     5     6   ar
    19     6     7   ar
    20     7     8   ar
    21     8     9   ar
    22     9    10    1
    23     9    11   ar
    24    11    12   ar
    25    12    13   ar
    26    13    14   ar
    27    14    15    2
    28    14     4   ar
    29    23    18   ar
    30    13     7   ar
    31    29    24    1
    32     1     2    1
@<TRIPOS>MOLECULE
*****
 29 32 0 0 0
SMALL
GASTEIGER

@<TRIPOS>ATOM
      1 N          61.6006   90.5331    9.7661 N.pl3   1  UNL1       -0.3039
      2 H          61.5783   91.2827    9.1283 H       1  UNL1        0.1496
      3 C          60.4759   89.5347   12.3619 C.3     1  UNL1        0.1363
      4 N          61.8460   90.1442   12.3231 N.ar    1  UNL1       -0.2669
      5 C          62.4084   90.6434   11.0252 C.ar    1  UNL1        0.2002
      6 N          63.7784   91.2528   10.9865 N.ar    1  UNL1       -0.2150
      7 C          64.5862   91.3631   12.2456 C.ar    1  UNL1        0.0895
      8 C          65.9562   91.9726   12.2069 C.ar    1  UNL1        0.0307
      9 C          66.7638   92.0828   13.4660 C.ar    1  UNL1        0.0592
     10 CL         68.1340   92.6923   13.4273 Cl      1  UNL1       -0.0822
     11 C          66.2015   91.5836   14.7639 C.ar    1  UNL1        0.0116
     12 C          64.8315   90.9742   14.8027 C.ar    1  UNL1        0.0071
     13 C          64.0238   90.8639   13.5435 C.ar    1  UNL1        0.0740
     14 C          62.6537   90.2544   13.5823 C.ar    1  UNL1        0.2643
     15 O          62.0914   89.7552   14.8802 O.2     1  UNL1       -0.2668
     16 C          60.8270   89.2806    9.4786 C.3     1  UNL1        0.0942
     17 C          61.5122   88.1034    8.8504 C.3     1  UNL1        0.0476
     18 C          61.8752   86.9125    9.6871 C.ar    1  UNL1       -0.0204
     19 C          61.4064   86.8241   11.1092 C.ar    1  UNL1       -0.0029
     20 C          61.7695   85.6333   11.9459 C.ar    1  UNL1        0.0142
     21 C          62.6013   84.5309   11.3605 C.ar    1  UNL1        0.0480
     22 C          63.0701   84.6193    9.9384 C.ar    1  UNL1        0.0142
     23 C          62.7071   85.8101    9.1017 C.ar    1  UNL1       -0.0029
     24 N          62.9644   83.3400   12.1973 N.pl3   1  UNL1       -0.3028
     25 C          63.6283   83.5330   13.5285 C.3     1  UNL1        0.1231
     26 C          63.9913   82.3422   14.3652 C.3     1  UNL1        0.1636
     27 O          63.6905   80.9583   13.8707 O.3     1  UNL1       -0.3501
     28 C          63.0267   80.7653   12.5395 C.3     1  UNL1        0.1636
     29 C          62.6636   81.9562   11.7028 C.3     1  UNL1        0.1231
@<TRIPOS>BOND
     1     3     4    1
     2     4     5   ar
     3     5     1    1
     4     1    16    1
     5    16    17    1
     6    17    18    1
     7    18    19   ar
     8    19    20   ar
     9    20    21   ar
    10    21    24    1
    11    24    25    1
    12    25    26    1
    13    26    27    1
    14    27    28    1
    15    28    29    1
    16    21    22   ar
    17    22    23   ar
    18     5     6   ar
    19     6     7   ar
    20     7     8   ar
    21     8     9   ar
    22     9    10    1
    23     9    11   ar
    24    11    12   ar
    25    12    13   ar
    26    13    14   ar
    27    14    15    2
    28    14     4   ar
    29    23    18   ar
    30    13     7   ar
    31    29    24    1
    32     1     2    1
@<TRIPOS>MOLECULE
*****
 29 32 0 0 0
SMALL
GASTEIGER

@<TRIPOS>ATOM
      1 N          63.1147   86.4816   11.9719 N.pl3   1  UNL1       -0.3039
      2 H          63.9799   86.9436   12.0563 H       1  UNL1        0.1496
      3 C          62.8729   85.5349   14.8083 C.3     1  UNL1        0.1363
      4 N          62.8952   84.5408   13.6852 N.ar    1  UNL1       -0.2669
      5 C          63.0161   85.0142   12.2669 C.ar    1  UNL1        0.2002
      6 N          63.0384   84.0202   11.1438 N.ar    1  UNL1       -0.2150
      7 C          62.9398   82.5527   11.4389 C.ar    1  UNL1        0.0895
      8 C          62.9621   81.5587   10.3158 C.ar    1  UNL1        0.0307
      9 C          62.8635   80.0914   10.6109 C.ar    1  UNL1        0.0592
     10 CL         62.8858   79.0973    9.4878 Cl      1  UNL1       -0.0822
     11 C          62.7426   79.6181   12.0291 C.ar    1  UNL1        0.0116
     12 C          62.7203   80.6120   13.1522 C.ar    1  UNL1        0.0071
     13 C          62.8189   82.0794   12.8571 C.ar    1  UNL1        0.0740
     14 C          62.7966   83.0735   13.9803 C.ar    1  UNL1        0.2643
     15 O          62.6758   82.6001   15.3985 O.2     1  UNL1       -0.2668
     16 C          61.8950   87.2450   11.5481 C.3     1  UNL1        0.0942
     17 C          61.9347   88.7428   11.4777 C.3     1  UNL1        0.0476
     18 C          63.0240   89.4981   12.1799 C.ar    1  UNL1       -0.0204
     19 C          63.5878   88.9767   13.4684 C.ar    1  UNL1       -0.0029
     20 C          64.6771   89.7319   14.1705 C.ar    1  UNL1        0.0142
     21 C          65.2026   91.0086   13.5841 C.ar    1  UNL1        0.0480
     22 C          64.6388   91.5300   12.2956 C.ar    1  UNL1        0.0142
     23 C          63.5496   90.7748   11.5935 C.ar    1  UNL1       -0.0029
     24 N          66.2920   91.7639   14.2862 N.pl3   1  UNL1       -0.3028
     25 C          66.0244   92.4021   15.6170 C.3     1  UNL1        0.1231
     26 C          67.1137   93.1574   16.3191 C.3     1  UNL1        0.1636
     27 O          68.4706   93.2744   15.6905 O.3     1  UNL1       -0.3501
     28 C          68.7381   92.6362   14.3597 C.3     1  UNL1        0.1636
     29 C          67.6488   91.8809   13.6575 C.3     1  UNL1        0.1231
@<TRIPOS>BOND
     1     3     4    1
     2     4     5   ar
     3     5     1    1
     4     1    16    1
     5    16    17    1
     6    17    18    1
     7    18    19   ar
     8    19    20   ar
     9    20    21   ar
    10    21    24    1
    11    24    25    1
    12    25    26    1
    13    26    27    1
    14    27    28    1
    15    28    29    1
    16    21    22   ar
    17    22    23   ar
    18     5     6   ar
    19     6     7   ar
    20     7     8   ar
    21     8     9   ar
    22     9    10    1
    23     9    11   ar
    24    11    12   ar
    25    12    13   ar
    26    13    14   ar
    27    14    15    2
    28    14     4   ar
    29    23    18   ar
    30    13     7   ar
    31    29    24    1
    32     1     2    1
