@<TRIPOS>MOLECULE
*****
 44 47 0 0 0
SMALL
GASTEIGER

@<TRIPOS>ATOM
      1 N          63.2105   89.3742   12.5861 N.ar    1  UNL1       -0.2470
      2 C          62.3485   89.0293   11.4080 C.ar    1  UNL1        0.2657
      3 O          61.7229   90.1209   10.5912 O.2     1  UNL1       -0.2668
      4 C          62.1122   87.5928   11.0466 C.ar    1  UNL1        0.0744
      5 C          62.7377   86.5013   11.8634 C.ar    1  UNL1        0.0848
      6 N          63.5997   86.8462   13.0415 N.ar    1  UNL1       -0.2755
      7 C          63.8360   88.2827   13.4029 C.ar    1  UNL1        0.3341
      8 O          64.6980   88.6277   14.5811 O.2     1  UNL1       -0.2462
      9 C          61.2502   87.2479    9.8684 C.ar    1  UNL1        0.0166
     10 C          59.8995   87.8823    9.7160 C.ar    1  UNL1        0.0010
     11 C          59.0376   87.5373    8.5379 C.ar    1  UNL1        0.0001
     12 C          59.5262   86.5579    7.5121 C.ar    1  UNL1        0.0009
     13 C          60.8769   85.9235    7.6646 C.ar    1  UNL1        0.0114
     14 C          61.7389   86.2685    8.8428 C.ar    1  UNL1        0.0578
     15 CL         63.0896   85.6341    8.9952 Cl      1  UNL1       -0.0822
     16 C          63.4469   90.8108   12.9475 C.3     1  UNL1        0.1337
     17 C          64.7702   91.4511   12.6498 C.3     1  UNL1        0.1000
     18 C          65.7121   91.7819   13.7694 C.ar    1  UNL1       -0.0061
     19 C          65.1739   92.1020   15.1324 C.ar    1  UNL1       -0.0029
     20 C          66.1158   92.4329   16.2519 C.ar    1  UNL1       -0.0003
     21 C          67.5959   92.4437   16.0084 C.ar    1  UNL1       -0.0000
     22 C          68.1341   92.1236   14.6454 C.ar    1  UNL1       -0.0003
     23 C          67.1922   91.7928   13.5259 C.ar    1  UNL1       -0.0029
     24 N          65.1518   91.7605   11.2325 N.3     1  UNL1       -0.2935
     25 H          66.1109   91.4361   11.1083 H       1  UNL1        0.1236
     26 C          65.1051   93.1748   10.7349 C.3     1  UNL1        0.0694
     27 C          65.9802   94.2196   11.3615 C.3     1  UNL1        0.0287
     28 C          66.6923   95.2180   10.4978 C.3     1  UNL1        0.1110
     29 C          67.5452   94.7490    9.3564 C.2     1  UNL1        0.3171
     30 O          67.2060   95.1517    7.9519 O.2     1  UNL1       -0.2501
     31 C          68.6564   92.4006    9.3693 C.3     1  UNL1        0.2556
     32 O          68.7372   93.8774    9.6196 O.3     1  UNL1       -0.4444
     33 C          64.2252   85.7546   13.8583 C.3     1  UNL1        0.1394
     34 C          63.6421   84.3728   13.8356 C.ar    1  UNL1        0.0319
     35 C          63.9742   83.4370   12.7113 C.ar    1  UNL1        0.1379
     36 F          64.8894   83.8831   11.6098 F       1  UNL1       -0.2044
     37 C          63.3911   82.0552   12.6886 C.ar    1  UNL1        0.0294
     38 C          62.4759   81.6092   13.7902 C.ar    1  UNL1        0.0022
     39 C          62.1438   82.5449   14.9145 C.ar    1  UNL1        0.0037
     40 C          62.7269   83.9268   14.9372 C.ar    1  UNL1        0.0714
     41 C          62.3948   84.8625   16.0615 C.3     1  UNL1        0.4184
     42 F          62.0627   85.7983   17.1858 F       1  UNL1       -0.1659
     43 F          60.9765   84.9384   15.5794 F       1  UNL1       -0.1659
     44 F          63.8132   84.7867   16.5436 F       1  UNL1       -0.1659
@<TRIPOS>BOND
     1    31    32    1
     2    32    29    1
     3    29    30    2
     4    29    28    1
     5    28    27    1
     6    27    26    1
     7    26    24    1
     8    24    17    1
     9    17    16    1
    10    16     1    1
    11     1     2   ar
    12     2     3    2
    13     2     4   ar
    14     4     9    1
    15     9    10   ar
    16    10    11   ar
    17    11    12   ar
    18    12    13   ar
    19    13    14   ar
    20    14    15    1
    21     4     5   ar
    22     5     6   ar
    23     6    33    1
    24    33    34    1
    25    34    35   ar
    26    35    36    1
    27    35    37   ar
    28    37    38   ar
    29    38    39   ar
    30    39    40   ar
    31    40    41    1
    32    41    42    1
    33    41    43    1
    34    41    44    1
    35     6     7   ar
    36     7     8    2
    37    17    18    1
    38    18    19   ar
    39    19    20   ar
    40    20    21   ar
    41    21    22   ar
    42    22    23   ar
    43     7     1   ar
    44    23    18   ar
    45    14     9   ar
    46    40    34   ar
    47    24    25    1
@<TRIPOS>MOLECULE
*****
 44 47 0 0 0
SMALL
GASTEIGER

@<TRIPOS>ATOM
      1 N          63.1283   88.5410   12.9272 N.ar    1  UNL1       -0.2470
      2 C          62.2851   88.4328   11.6914 C.ar    1  UNL1        0.2657
      3 O          61.6943   89.6666   11.0761 O.2     1  UNL1       -0.2668
      4 C          62.0328   87.0907   11.0708 C.ar    1  UNL1        0.0744
      5 C          62.6236   85.8569   11.6861 C.ar    1  UNL1        0.0848
      6 N          63.4668   85.9651   12.9220 N.ar    1  UNL1       -0.2755
      7 C          63.7191   87.3072   13.5425 C.ar    1  UNL1        0.3341
      8 O          64.5622   87.4155   14.7784 O.2     1  UNL1       -0.2462
      9 C          61.1897   86.9824    9.8349 C.ar    1  UNL1        0.0166
     10 C          59.8380   87.6312    9.7899 C.ar    1  UNL1        0.0010
     11 C          58.9948   87.5229    8.5541 C.ar    1  UNL1        0.0001
     12 C          59.5033   86.7658    7.3632 C.ar    1  UNL1        0.0009
     13 C          60.8550   86.1170    7.4081 C.ar    1  UNL1        0.0114
     14 C          61.6982   86.2253    8.6441 C.ar    1  UNL1        0.0578
     15 CL         63.0498   85.5765    8.6890 Cl      1  UNL1       -0.0822
     16 C          63.3806   89.8831   13.5478 C.3     1  UNL1        0.1337
     17 C          64.4918   90.7500   13.0342 C.3     1  UNL1        0.1000
     18 C          65.4578   91.3784   13.9944 C.ar    1  UNL1       -0.0061
     19 C          64.9996   91.7780   15.3656 C.ar    1  UNL1       -0.0029
     20 C          65.9657   92.4064   16.3257 C.ar    1  UNL1       -0.0003
     21 C          67.3900   92.6352   15.9145 C.ar    1  UNL1       -0.0000
     22 C          67.8482   92.2356   14.5433 C.ar    1  UNL1       -0.0003
     23 C          66.8821   91.6072   13.5832 C.ar    1  UNL1       -0.0029
     24 N          64.6369   90.9884   11.5604 N.3     1  UNL1       -0.2935
     25 H          65.6057   90.7764   11.3218 H       1  UNL1        0.1236
     26 C          64.3357   92.3411   10.9863 C.3     1  UNL1        0.0694
     27 C          65.4550   93.2243   10.5203 C.3     1  UNL1        0.0287
     28 C          66.8422   92.6696   10.3869 C.3     1  UNL1        0.1110
     29 C          67.8260   93.3240    9.4629 C.2     1  UNL1        0.3171
     30 O          69.2643   92.8984    9.4752 O.2     1  UNL1       -0.2501
     31 C          67.3932   95.8375    8.9679 C.3     1  UNL1        0.2556
     32 O          67.3716   94.4041    8.5265 O.3     1  UNL1       -0.4444
     33 C          64.0576   84.7313   13.5373 C.3     1  UNL1        0.1394
     34 C          63.2717   83.4539   13.5587 C.ar    1  UNL1        0.0319
     35 C          62.4139   83.1208   14.7434 C.ar    1  UNL1        0.1379
     36 F          62.3420   84.0652   15.9065 F       1  UNL1       -0.2044
     37 C          61.6280   81.8434   14.7648 C.ar    1  UNL1        0.0294
     38 C          61.6999   80.8989   13.6017 C.ar    1  UNL1        0.0022
     39 C          62.5576   81.2319   12.4171 C.ar    1  UNL1        0.0037
     40 C          63.3436   82.5094   12.3956 C.ar    1  UNL1        0.0714
     41 C          64.2013   82.8424   11.2110 C.3     1  UNL1        0.4184
     42 F          65.0591   83.1754   10.0264 F       1  UNL1       -0.1659
     43 F          65.4309   82.5541   12.0203 F       1  UNL1       -0.1659
     44 F          62.9718   83.1308   10.4017 F       1  UNL1       -0.1659
@<TRIPOS>BOND
     1    31    32    1
     2    32    29    1
     3    29    30    2
     4    29    28    1
     5    28    27    1
     6    27    26    1
     7    26    24    1
     8    24    17    1
     9    17    16    1
    10    16     1    1
    11     1     2   ar
    12     2     3    2
    13     2     4   ar
    14     4     9    1
    15     9    10   ar
    16    10    11   ar
    17    11    12   ar
    18    12    13   ar
    19    13    14   ar
    20    14    15    1
    21     4     5   ar
    22     5     6   ar
    23     6    33    1
    24    33    34    1
    25    34    35   ar
    26    35    36    1
    27    35    37   ar
    28    37    38   ar
    29    38    39   ar
    30    39    40   ar
    31    40    41    1
    32    41    42    1
    33    41    43    1
    34    41    44    1
    35     6     7   ar
    36     7     8    2
    37    17    18    1
    38    18    19   ar
    39    19    20   ar
    40    20    21   ar
    41    21    22   ar
    42    22    23   ar
    43     7     1   ar
    44    23    18   ar
    45    14     9   ar
    46    40    34   ar
    47    24    25    1
@<TRIPOS>MOLECULE
*****
 44 47 0 0 0
SMALL
GASTEIGER

@<TRIPOS>ATOM
      1 N          61.8990   87.2519   11.8395 N.ar    1  UNL1       -0.2470
      2 C          62.3935   88.4760   12.5513 C.ar    1  UNL1        0.2657
      3 O          61.7275   89.7997   12.3181 O.2     1  UNL1       -0.2668
      4 C          63.5540   88.3766   13.4965 C.ar    1  UNL1        0.0744
      5 C          64.2199   87.0529   13.7298 C.ar    1  UNL1        0.0848
      6 N          63.7254   85.8287   13.0179 N.ar    1  UNL1       -0.2755
      7 C          62.5649   85.9282   12.0728 C.ar    1  UNL1        0.3341
      8 O          62.0704   84.7040   11.3609 O.2     1  UNL1       -0.2462
      9 C          64.0485   89.6008   14.2084 C.ar    1  UNL1        0.0166
     10 C          64.9865   90.5440   13.5151 C.ar    1  UNL1        0.0010
     11 C          65.4811   91.7682   14.2269 C.ar    1  UNL1        0.0001
     12 C          65.0377   92.0492   15.6321 C.ar    1  UNL1        0.0009
     13 C          64.0997   91.1060   16.3254 C.ar    1  UNL1        0.0114
     14 C          63.6052   89.8818   15.6135 C.ar    1  UNL1        0.0578
     15 CL         62.6672   88.9386   16.3068 Cl      1  UNL1       -0.0822
     16 C          60.7384   87.3513   10.8943 C.3     1  UNL1        0.1337
     17 C          60.9757   87.6550    9.4447 C.3     1  UNL1        0.1000
     18 C          61.3393   86.5508    8.4967 C.ar    1  UNL1       -0.0061
     19 C          62.7405   86.0161    8.4704 C.ar    1  UNL1       -0.0029
     20 C          63.1041   84.9119    7.5225 C.ar    1  UNL1       -0.0003
     21 C          62.0666   84.3425    6.6009 C.ar    1  UNL1       -0.0000
     22 C          60.6654   84.8773    6.6273 C.ar    1  UNL1       -0.0003
     23 C          60.3018   85.9814    7.5752 C.ar    1  UNL1       -0.0029
     24 N          60.8492   89.0630    8.9429 N.3     1  UNL1       -0.2935
     25 H          61.0078   89.6759    9.7427 H       1  UNL1        0.1236
     26 C          59.5745   89.5168    8.2955 C.3     1  UNL1        0.0694
     27 C          59.3299   89.2359    6.8425 C.3     1  UNL1        0.0287
     28 C          59.6486   90.2791    5.8129 C.3     1  UNL1        0.1110
     29 C          58.5836   91.2311    5.3552 C.2     1  UNL1        0.3171
     30 O          57.1373   90.8513    5.4726 O.2     1  UNL1       -0.2501
     31 C          59.8257   92.6315    3.5535 C.3     1  UNL1        0.2556
     32 O          58.9650   92.5629    4.7801 O.3     1  UNL1       -0.4444
     33 C          64.3914   84.5051   13.2512 C.3     1  UNL1        0.1394
     34 C          63.5711   83.2500   13.2943 C.ar    1  UNL1        0.0319
     35 C          63.6772   82.2462   12.1847 C.ar    1  UNL1        0.1379
     36 F          64.6036   82.4975   11.0320 F       1  UNL1       -0.2044
     37 C          62.8568   80.9911   12.2278 C.ar    1  UNL1        0.0294
     38 C          61.9304   80.7399   13.3805 C.ar    1  UNL1        0.0022
     39 C          61.8244   81.7436   14.4900 C.ar    1  UNL1        0.0037
     40 C          62.6447   82.9987   14.4470 C.ar    1  UNL1        0.0714
     41 C          62.5386   84.0025   15.5565 C.3     1  UNL1        0.4184
     42 F          62.4325   85.0062   16.6661 F       1  UNL1       -0.1659
     43 F          61.2299   84.4794   15.0000 F       1  UNL1       -0.1659
     44 F          63.8473   83.5256   16.1131 F       1  UNL1       -0.1659
@<TRIPOS>BOND
     1    31    32    1
     2    32    29    1
     3    29    30    2
     4    29    28    1
     5    28    27    1
     6    27    26    1
     7    26    24    1
     8    24    17    1
     9    17    16    1
    10    16     1    1
    11     1     2   ar
    12     2     3    2
    13     2     4   ar
    14     4     9    1
    15     9    10   ar
    16    10    11   ar
    17    11    12   ar
    18    12    13   ar
    19    13    14   ar
    20    14    15    1
    21     4     5   ar
    22     5     6   ar
    23     6    33    1
    24    33    34    1
    25    34    35   ar
    26    35    36    1
    27    35    37   ar
    28    37    38   ar
    29    38    39   ar
    30    39    40   ar
    31    40    41    1
    32    41    42    1
    33    41    43    1
    34    41    44    1
    35     6     7   ar
    36     7     8    2
    37    17    18    1
    38    18    19   ar
    39    19    20   ar
    40    20    21   ar
    41    21    22   ar
    42    22    23   ar
    43     7     1   ar
    44    23    18   ar
    45    14     9   ar
    46    40    34   ar
    47    24    25    1
@<TRIPOS>MOLECULE
*****
 44 47 0 0 0
SMALL
GASTEIGER

@<TRIPOS>ATOM
      1 N          63.0588   89.3063   12.8363 N.ar    1  UNL1       -0.2470
      2 C          62.2557   89.0670   11.5923 C.ar    1  UNL1        0.2657
      3 O          61.5874   90.2166   10.8982 O.2     1  UNL1       -0.2668
      4 C          62.1208   87.6780   11.0424 C.ar    1  UNL1        0.0744
      5 C          62.7890   86.5283   11.7364 C.ar    1  UNL1        0.0848
      6 N          63.5921   86.7676   12.9805 N.ar    1  UNL1       -0.2755
      7 C          63.7270   88.1566   13.5304 C.ar    1  UNL1        0.3341
      8 O          64.5302   88.3960   14.7745 O.2     1  UNL1       -0.2462
      9 C          61.3176   87.4386    9.7983 C.ar    1  UNL1        0.0166
     10 C          60.1784   88.3516    9.4537 C.ar    1  UNL1        0.0010
     11 C          59.3753   88.1123    8.2097 C.ar    1  UNL1        0.0001
     12 C          59.7112   86.9599    7.3102 C.ar    1  UNL1        0.0009
     13 C          60.8504   86.0468    7.6547 C.ar    1  UNL1        0.0114
     14 C          61.6536   86.2862    8.8988 C.ar    1  UNL1        0.0578
     15 CL         62.7927   85.3732    9.2433 Cl      1  UNL1       -0.0822
     16 C          63.1938   90.6953   13.3863 C.3     1  UNL1        0.1337
     17 C          64.5505   91.3215   13.5176 C.3     1  UNL1        0.1000
     18 C          65.0662   92.2269   12.4385 C.ar    1  UNL1       -0.0061
     19 C          64.7331   91.9483   11.0028 C.ar    1  UNL1       -0.0029
     20 C          65.2488   92.8537    9.9239 C.ar    1  UNL1       -0.0003
     21 C          66.0977   94.0378   10.2807 C.ar    1  UNL1       -0.0000
     22 C          66.4308   94.3165   11.7164 C.ar    1  UNL1       -0.0003
     23 C          65.9151   93.4111   12.7953 C.ar    1  UNL1       -0.0029
     24 N          65.3915   91.0422   14.7278 N.3     1  UNL1       -0.2935
     25 H          65.1147   90.1232   15.0731 H       1  UNL1        0.1236
     26 C          65.3507   91.9759   15.9011 C.3     1  UNL1        0.0694
     27 C          66.6229   92.5625   16.4374 C.3     1  UNL1        0.0287
     28 C          67.9465   92.0036   16.0065 C.3     1  UNL1        0.1110
     29 C          68.9473   92.8876   15.3233 C.2     1  UNL1        0.3171
     30 O          69.2802   94.2307   15.9022 O.2     1  UNL1       -0.2501
     31 C          68.8390   91.6464   13.0435 C.3     1  UNL1        0.2556
     32 O          69.6152   92.4286   14.0611 O.3     1  UNL1       -0.4444
     33 C          64.2603   85.6180   13.6746 C.3     1  UNL1        0.1394
     34 C          63.6475   84.2500   13.6196 C.ar    1  UNL1        0.0319
     35 C          63.9244   83.3505   12.4516 C.ar    1  UNL1        0.1379
     36 F          64.8142   83.8189   11.3386 F       1  UNL1       -0.2044
     37 C          63.3115   81.9825   12.3967 C.ar    1  UNL1        0.0294
     38 C          62.4217   81.5141   13.5097 C.ar    1  UNL1        0.0022
     39 C          62.1448   82.4136   14.6777 C.ar    1  UNL1        0.0037
     40 C          62.7577   83.7816   14.7327 C.ar    1  UNL1        0.0714
     41 C          62.4808   84.6811   15.9006 C.3     1  UNL1        0.4184
     42 F          62.2038   85.5806   17.0686 F       1  UNL1       -0.1659
     43 F          61.0471   84.7935   15.4742 F       1  UNL1       -0.1659
     44 F          63.9144   84.5687   16.3271 F       1  UNL1       -0.1659
@<TRIPOS>BOND
     1    31    32    1
     2    32    29    1
     3    29    30    2
     4    29    28    1
     5    28    27    1
     6    27    26    1
     7    26    24    1
     8    24    17    1
     9    17    16    1
    10    16     1    1
    11     1     2   ar
    12     2     3    2
    13     2     4   ar
    14     4     9    1
    15     9    10   ar
    16    10    11   ar
    17    11    12   ar
    18    12    13   ar
    19    13    14   ar
    20    14    15    1
    21     4     5   ar
    22     5     6   ar
    23     6    33    1
    24    33    34    1
    25    34    35   ar
    26    35    36    1
    27    35    37   ar
    28    37    38   ar
    29    38    39   ar
    30    39    40   ar
    31    40    41    1
    32    41    42    1
    33    41    43    1
    34    41    44    1
    35     6     7   ar
    36     7     8    2
    37    17    18    1
    38    18    19   ar
    39    19    20   ar
    40    20    21   ar
    41    21    22   ar
    42    22    23   ar
    43     7     1   ar
    44    23    18   ar
    45    14     9   ar
    46    40    34   ar
    47    24    25    1
@<TRIPOS>MOLECULE
*****
 44 47 0 0 0
SMALL
GASTEIGER

@<TRIPOS>ATOM
      1 N          63.5080   86.7863   12.9536 N.ar    1  UNL1       -0.2470
      2 C          62.6272   86.6312   11.7494 C.ar    1  UNL1        0.2657
      3 O          62.2488   85.2618   11.2683 O.2     1  UNL1       -0.2668
      4 C          62.1248   87.8456   11.0264 C.ar    1  UNL1        0.0744
      5 C          62.5031   89.2150   11.5075 C.ar    1  UNL1        0.0848
      6 N          63.3839   89.3701   12.7117 N.ar    1  UNL1       -0.2755
      7 C          63.8864   88.1558   13.4347 C.ar    1  UNL1        0.3341
      8 O          64.7672   88.3108   14.6390 O.2     1  UNL1       -0.2462
      9 C          61.2439   87.6905    9.8221 C.ar    1  UNL1        0.0166
     10 C          61.3038   86.4334    9.0060 C.ar    1  UNL1        0.0010
     11 C          60.4231   86.2784    7.8018 C.ar    1  UNL1        0.0001
     12 C          59.4823   87.3804    7.4137 C.ar    1  UNL1        0.0009
     13 C          59.4224   88.6375    8.2298 C.ar    1  UNL1        0.0114
     14 C          60.3032   88.7926    9.4341 C.ar    1  UNL1        0.0578
     15 CL         60.2433   90.0497   10.2502 Cl      1  UNL1       -0.0822
     16 C          64.0105   85.5719   13.6768 C.3     1  UNL1        0.1337
     17 C          63.0407   84.6375   14.3372 C.3     1  UNL1        0.1000
     18 C          62.8813   83.2367   13.8248 C.ar    1  UNL1       -0.0061
     19 C          61.8920   82.3108   14.4681 C.ar    1  UNL1       -0.0029
     20 C          61.7327   80.9101   13.9556 C.ar    1  UNL1       -0.0003
     21 C          62.5626   80.4354   12.7999 C.ar    1  UNL1       -0.0000
     22 C          63.5520   81.3613   12.1566 C.ar    1  UNL1       -0.0003
     23 C          63.7113   82.7620   12.6691 C.ar    1  UNL1       -0.0029
     24 N          62.2302   85.1038   15.5101 N.3     1  UNL1       -0.2935
     25 H          61.6314   85.8577   15.1732 H       1  UNL1        0.1236
     26 C          62.9179   85.6144   16.7416 C.3     1  UNL1        0.0694
     27 C          62.3356   86.7691   17.5016 C.3     1  UNL1        0.0287
     28 C          63.0956   88.0581   17.6056 C.3     1  UNL1        0.1110
     29 C          62.7437   89.2104   16.7121 C.2     1  UNL1        0.3171
     30 O          61.3712   89.3041   16.1143 O.2     1  UNL1       -0.2501
     31 C          63.5228   91.6852   16.8483 C.3     1  UNL1        0.2556
     32 O          63.7643   90.2691   16.4165 O.3     1  UNL1       -0.4444
     33 C          63.7623   90.7396   13.1928 C.3     1  UNL1        0.1394
     34 C          64.6990   91.5866   12.3835 C.ar    1  UNL1        0.0319
     35 C          64.4100   91.8508   10.9354 C.ar    1  UNL1        0.1379
     36 F          63.1842   91.2680   10.2968 F       1  UNL1       -0.2044
     37 C          65.3467   92.6979   10.1261 C.ar    1  UNL1        0.0294
     38 C          66.5724   93.2807   10.7647 C.ar    1  UNL1        0.0022
     39 C          66.8615   93.0165   12.2127 C.ar    1  UNL1        0.0037
     40 C          65.9248   92.1694   13.0221 C.ar    1  UNL1        0.0714
     41 C          66.2138   91.9052   14.4701 C.3     1  UNL1        0.4184
     42 F          66.5028   91.6410   15.9180 F       1  UNL1       -0.1659
     43 F          65.7079   93.2731   14.8206 F       1  UNL1       -0.1659
     44 F          66.7197   90.5374   14.1195 F       1  UNL1       -0.1659
@<TRIPOS>BOND
     1    31    32    1
     2    32    29    1
     3    29    30    2
     4    29    28    1
     5    28    27    1
     6    27    26    1
     7    26    24    1
     8    24    17    1
     9    17    16    1
    10    16     1    1
    11     1     2   ar
    12     2     3    2
    13     2     4   ar
    14     4     9    1
    15     9    10   ar
    16    10    11   ar
    17    11    12   ar
    18    12    13   ar
    19    13    14   ar
    20    14    15    1
    21     4     5   ar
    22     5     6   ar
    23     6    33    1
    24    33    34    1
    25    34    35   ar
    26    35    36    1
    27    35    37   ar
    28    37    38   ar
    29    38    39   ar
    30    39    40   ar
    31    40    41    1
    32    41    42    1
    33    41    43    1
    34    41    44    1
    35     6     7   ar
    36     7     8    2
    37    17    18    1
    38    18    19   ar
    39    19    20   ar
    40    20    21   ar
    41    21    22   ar
    42    22    23   ar
    43     7     1   ar
    44    23    18   ar
    45    14     9   ar
    46    40    34   ar
    47    24    25    1
@<TRIPOS>MOLECULE
*****
 44 47 0 0 0
SMALL
GASTEIGER

@<TRIPOS>ATOM
      1 N          63.5273   86.0952   13.0090 N.ar    1  UNL1       -0.2470
      2 C          62.6949   85.8679   11.7820 C.ar    1  UNL1        0.2657
      3 O          62.4506   84.4723   11.2894 O.2     1  UNL1       -0.2668
      4 C          62.1069   87.0362   11.0477 C.ar    1  UNL1        0.0744
      5 C          62.3512   88.4318   11.5403 C.ar    1  UNL1        0.0848
      6 N          63.1835   88.6591   12.7672 N.ar    1  UNL1       -0.2755
      7 C          63.7716   87.4908   13.5016 C.ar    1  UNL1        0.3341
      8 O          64.6040   87.7181   14.7286 O.2     1  UNL1       -0.2462
      9 C          61.2745   86.8089    9.8206 C.ar    1  UNL1        0.0166
     10 C          59.8620   87.3111    9.7690 C.ar    1  UNL1        0.0010
     11 C          59.0296   87.0839    8.5421 C.ar    1  UNL1        0.0001
     12 C          59.6097   86.3544    7.3667 C.ar    1  UNL1        0.0009
     13 C          61.0221   85.8522    7.4183 C.ar    1  UNL1        0.0114
     14 C          61.8545   86.0794    8.6454 C.ar    1  UNL1        0.0578
     15 CL         63.2670   85.5772    8.6970 Cl      1  UNL1       -0.0822
     16 C          64.1154   84.9269   13.7434 C.3     1  UNL1        0.1337
     17 C          63.2273   84.0173   14.5394 C.3     1  UNL1        0.1000
     18 C          62.9045   82.6456   14.0250 C.ar    1  UNL1       -0.0061
     19 C          63.7943   81.9982   13.0058 C.ar    1  UNL1       -0.0029
     20 C          63.4715   80.6266   12.4915 C.ar    1  UNL1       -0.0003
     21 C          62.2589   79.9024   12.9965 C.ar    1  UNL1       -0.0000
     22 C          61.3690   80.5499   14.0158 C.ar    1  UNL1       -0.0003
     23 C          61.6918   81.9214   14.5301 C.ar    1  UNL1       -0.0029
     24 N          62.6619   84.4792   15.8497 N.3     1  UNL1       -0.2935
     25 H          61.6916   84.7412   15.6757 H       1  UNL1        0.1236
     26 C          63.2966   85.6270   16.5775 C.3     1  UNL1        0.0694
     27 C          62.4523   86.5467   17.4091 C.3     1  UNL1        0.0287
     28 C          62.9691   87.9034   17.7863 C.3     1  UNL1        0.1110
     29 C          62.8074   89.0569   16.8412 C.2     1  UNL1        0.3171
     30 O          61.5080   89.2587   16.1195 O.2     1  UNL1       -0.2501
     31 C          63.6846   91.4839   16.5412 C.3     1  UNL1        0.2556
     32 O          63.9450   90.0087   16.6179 O.3     1  UNL1       -0.4444
     33 C          63.4278   90.0547   13.2599 C.3     1  UNL1        0.1394
     34 C          64.3545   90.9638   12.5085 C.ar    1  UNL1        0.0319
     35 C          65.6904   91.3204   13.0902 C.ar    1  UNL1        0.1379
     36 F          66.0995   90.7678   14.4234 F       1  UNL1       -0.2044
     37 C          66.6171   92.2295   12.3388 C.ar    1  UNL1        0.0294
     38 C          66.2080   92.7821   11.0057 C.ar    1  UNL1        0.0022
     39 C          64.8722   92.4255   10.4239 C.ar    1  UNL1        0.0037
     40 C          63.9454   91.5164   11.1753 C.ar    1  UNL1        0.0714
     41 C          62.6097   91.1598   10.5935 C.3     1  UNL1        0.4184
     42 F          61.2739   90.8032   10.0118 F       1  UNL1       -0.1659
     43 F          63.2767   90.7468    9.3151 F       1  UNL1       -0.1659
     44 F          61.9426   91.5728   11.8720 F       1  UNL1       -0.1659
@<TRIPOS>BOND
     1    31    32    1
     2    32    29    1
     3    29    30    2
     4    29    28    1
     5    28    27    1
     6    27    26    1
     7    26    24    1
     8    24    17    1
     9    17    16    1
    10    16     1    1
    11     1     2   ar
    12     2     3    2
    13     2     4   ar
    14     4     9    1
    15     9    10   ar
    16    10    11   ar
    17    11    12   ar
    18    12    13   ar
    19    13    14   ar
    20    14    15    1
    21     4     5   ar
    22     5     6   ar
    23     6    33    1
    24    33    34    1
    25    34    35   ar
    26    35    36    1
    27    35    37   ar
    28    37    38   ar
    29    38    39   ar
    30    39    40   ar
    31    40    41    1
    32    41    42    1
    33    41    43    1
    34    41    44    1
    35     6     7   ar
    36     7     8    2
    37    17    18    1
    38    18    19   ar
    39    19    20   ar
    40    20    21   ar
    41    21    22   ar
    42    22    23   ar
    43     7     1   ar
    44    23    18   ar
    45    14     9   ar
    46    40    34   ar
    47    24    25    1
@<TRIPOS>MOLECULE
*****
 44 47 0 0 0
SMALL
GASTEIGER

@<TRIPOS>ATOM
      1 N          61.1920   88.1062   11.0966 N.ar    1  UNL1       -0.2470
      2 C          61.8185   86.9715   11.8515 C.ar    1  UNL1        0.2657
      3 O          61.1804   85.6141   11.8311 O.2     1  UNL1       -0.2668
      4 C          63.0831   87.1942   12.6268 C.ar    1  UNL1        0.0744
      5 C          63.7212   88.5515   12.6472 C.ar    1  UNL1        0.0848
      6 N          63.0947   89.6862   11.8923 N.ar    1  UNL1       -0.2755
      7 C          61.8301   89.4635   11.1170 C.ar    1  UNL1        0.3341
      8 O          61.2035   90.5982   10.3620 O.2     1  UNL1       -0.2462
      9 C          63.7096   86.0595   13.3818 C.ar    1  UNL1        0.0166
     10 C          63.8818   84.7237   12.7214 C.ar    1  UNL1        0.0010
     11 C          64.5083   83.5890   13.4763 C.ar    1  UNL1        0.0001
     12 C          64.9627   83.7901   14.8917 C.ar    1  UNL1        0.0009
     13 C          64.7906   85.1258   15.5521 C.ar    1  UNL1        0.0114
     14 C          64.1640   86.2605   14.7971 C.ar    1  UNL1        0.0578
     15 CL         63.9918   87.5963   15.4575 Cl      1  UNL1       -0.0822
     16 C          59.9273   87.8835   10.3212 C.3     1  UNL1        0.1337
     17 C          59.9866   87.6484    8.8410 C.3     1  UNL1        0.1000
     18 C          60.9027   86.5990    8.2844 C.ar    1  UNL1       -0.0061
     19 C          62.2867   86.4401    8.8405 C.ar    1  UNL1       -0.0029
     20 C          63.2026   85.3907    8.2839 C.ar    1  UNL1       -0.0003
     21 C          62.7346   84.5003    7.1712 C.ar    1  UNL1       -0.0000
     22 C          61.3506   84.6592    6.6151 C.ar    1  UNL1       -0.0003
     23 C          60.4347   85.7086    7.1717 C.ar    1  UNL1       -0.0029
     24 N          59.1300   88.4626    7.9173 N.3     1  UNL1       -0.2935
     25 H          58.6687   87.8057    7.2880 H       1  UNL1        0.1236
     26 C          59.7517   89.5225    7.0571 C.3     1  UNL1        0.0694
     27 C          59.0382   90.0060    5.8294 C.3     1  UNL1        0.0287
     28 C          59.5586   91.1962    5.0793 C.3     1  UNL1        0.1110
     29 C          58.6112   92.0771    4.3200 C.2     1  UNL1        0.3171
     30 O          57.2329   92.3322    4.8539 O.2     1  UNL1       -0.2501
     31 C          60.4904   93.0135    2.7897 C.3     1  UNL1        0.2556
     32 O          59.0422   92.7029    3.0267 O.3     1  UNL1       -0.4444
     33 C          63.7328   91.0436   11.9127 C.3     1  UNL1        0.1394
     34 C          64.5082   91.4898   13.1166 C.ar    1  UNL1        0.0319
     35 C          64.0228   91.1418   14.4927 C.ar    1  UNL1        0.1379
     36 F          62.7620   90.3477   14.6647 F       1  UNL1       -0.2044
     37 C          64.7983   91.5880   15.6966 C.ar    1  UNL1        0.0294
     38 C          66.0592   92.3821   15.5246 C.ar    1  UNL1        0.0022
     39 C          66.5446   92.7301   14.1487 C.ar    1  UNL1        0.0037
     40 C          65.7691   92.2839   12.9446 C.ar    1  UNL1        0.0714
     41 C          66.2545   92.6318   11.5687 C.3     1  UNL1        0.4184
     42 F          66.7399   92.9797   10.1927 F       1  UNL1       -0.1659
     43 F          67.3776   91.6486   11.7163 F       1  UNL1       -0.1659
     44 F          65.1314   93.6150   11.4211 F       1  UNL1       -0.1659
@<TRIPOS>BOND
     1    31    32    1
     2    32    29    1
     3    29    30    2
     4    29    28    1
     5    28    27    1
     6    27    26    1
     7    26    24    1
     8    24    17    1
     9    17    16    1
    10    16     1    1
    11     1     2   ar
    12     2     3    2
    13     2     4   ar
    14     4     9    1
    15     9    10   ar
    16    10    11   ar
    17    11    12   ar
    18    12    13   ar
    19    13    14   ar
    20    14    15    1
    21     4     5   ar
    22     5     6   ar
    23     6    33    1
    24    33    34    1
    25    34    35   ar
    26    35    36    1
    27    35    37   ar
    28    37    38   ar
    29    38    39   ar
    30    39    40   ar
    31    40    41    1
    32    41    42    1
    33    41    43    1
    34    41    44    1
    35     6     7   ar
    36     7     8    2
    37    17    18    1
    38    18    19   ar
    39    19    20   ar
    40    20    21   ar
    41    21    22   ar
    42    22    23   ar
    43     7     1   ar
    44    23    18   ar
    45    14     9   ar
    46    40    34   ar
    47    24    25    1
