@<TRIPOS>MOLECULE
*****
 31 34 0 0 0
SMALL
GASTEIGER

@<TRIPOS>ATOM
      1 N          57.6673   94.7952   -2.5202 N.pl3   1  UNL1       -0.3074
      2 C          58.1987   93.4358   -2.8660 C.3     1  UNL1        0.0925
      3 C          59.6381   93.1045   -2.6046 C.3     1  UNL1        0.0415
      4 C          60.5461   94.1325   -1.9974 C.3     1  UNL1        0.0807
      5 C          60.0146   95.4919   -1.6516 C.3     1  UNL1        0.0415
      6 C          58.5752   95.8232   -1.9130 C.3     1  UNL1        0.0925
      7 C          53.3491   95.7892   -3.3045 C.ar    1  UNL1        0.1058
      8 C          53.7907   95.4010   -1.9245 C.ar    1  UNL1        0.0196
      9 C          55.2301   95.0697   -1.6631 C.ar    1  UNL1        0.0158
     10 C          56.2279   95.1265   -2.7816 C.ar    1  UNL1        0.0479
     11 C          55.7863   95.5147   -4.1616 C.ar    1  UNL1        0.0158
     12 C          54.3469   95.8461   -4.4230 C.ar    1  UNL1        0.0196
     13 C          50.4703   96.4519   -3.8273 C.3     1  UNL1        0.1816
     14 S          51.9097   96.1206   -3.5659 S.O2    1  UNL1        0.0105
     15 O          51.5141   95.3852   -2.3198 O.2     1  UNL1       -0.1686
     16 O          52.3053   96.8560   -4.8119 O.2     1  UNL1       -0.1686
     17 N          61.9855   93.8012   -1.7360 N.pl3   1  UNL1       -0.2872
     18 C          62.9723   93.8017   -2.8656 C.ar    1  UNL1        0.0516
     19 C          63.3845   92.5073   -3.5020 C.ar    1  UNL1        0.0155
     20 C          64.3714   92.5078   -4.6316 C.ar    1  UNL1        0.0116
     21 C          64.9460   93.8025   -5.1249 C.ar    1  UNL1        0.0685
     22 C          64.5339   95.0968   -4.4886 C.ar    1  UNL1        0.0116
     23 C          63.5470   95.0964   -3.3590 C.ar    1  UNL1        0.0155
     24 C          65.9329   93.8030   -6.2546 C.1     1  UNL1        0.1004
     25 N          66.9198   93.8033   -7.3842 N.1     1  UNL1       -0.1908
     26 C          62.4381   93.4694   -0.3449 C.ar    1  UNL1        0.0710
     27 C          61.4480   92.9761    0.6682 C.ar    1  UNL1        0.0180
     28 C          61.9007   92.6443    2.0593 C.ar    1  UNL1        0.0220
     29 C          63.3433   92.8057    2.4372 C.ar    1  UNL1        0.0990
     30 N          64.3333   93.2990    1.4240 N.ar    1  UNL1       -0.2410
     31 C          63.8807   93.6308    0.0330 C.ar    1  UNL1        0.1136
@<TRIPOS>BOND
     1    13    14    1
     2    14    15    2
     3    14    16    2
     4    14     7    1
     5     7     8   ar
     6     8     9   ar
     7     9    10   ar
     8    10     1    1
     9     1     2    1
    10     2     3    1
    11     3     4    1
    12     4    17    1
    13    17    18    1
    14    18    19   ar
    15    19    20   ar
    16    20    21   ar
    17    21    24    1
    18    24    25    3
    19    21    22   ar
    20    22    23   ar
    21    17    26    1
    22    26    27   ar
    23    27    28   ar
    24    28    29   ar
    25    29    30   ar
    26    30    31   ar
    27     4     5    1
    28     5     6    1
    29    10    11   ar
    30    11    12   ar
    31    12     7   ar
    32     6     1    1
    33    23    18   ar
    34    31    26   ar
@<TRIPOS>MOLECULE
*****
 31 34 0 0 0
SMALL
GASTEIGER

@<TRIPOS>ATOM
      1 N          56.8202   95.3410   -3.2951 N.pl3   1  UNL1       -0.3074
      2 C          57.4646   94.1404   -3.9223 C.3     1  UNL1        0.0925
      3 C          58.9209   93.8645   -3.6918 C.3     1  UNL1        0.0415
      4 C          59.7328   94.7892   -2.8341 C.3     1  UNL1        0.0807
      5 C          59.0885   95.9898   -2.2069 C.3     1  UNL1        0.0415
      6 C          57.6322   96.2657   -2.4374 C.3     1  UNL1        0.0925
      7 C          52.4514   96.1687   -3.9865 C.ar    1  UNL1        0.1058
      8 C          52.9421   95.8311   -2.6098 C.ar    1  UNL1        0.0196
      9 C          54.3984   95.5552   -2.3794 C.ar    1  UNL1        0.0158
     10 C          55.3640   95.6169   -3.5255 C.ar    1  UNL1        0.0479
     11 C          54.8733   95.9545   -4.9022 C.ar    1  UNL1        0.0158
     12 C          53.4170   96.2304   -5.1327 C.ar    1  UNL1        0.0196
     13 C          49.5388   96.7205   -4.4475 C.3     1  UNL1        0.1816
     14 S          50.9951   96.4446   -4.2170 S.O2    1  UNL1        0.0105
     15 O          50.7320   96.2821   -2.7492 O.2     1  UNL1       -0.1686
     16 O          51.2582   96.6072   -5.6847 O.2     1  UNL1       -0.1686
     17 N          61.1891   94.5133   -2.6036 N.pl3   1  UNL1       -0.2872
     18 C          61.6334   93.8351   -1.3417 C.ar    1  UNL1        0.0516
     19 C          60.7360   92.8382   -0.6700 C.ar    1  UNL1        0.0155
     20 C          61.1803   92.1600    0.5920 C.ar    1  UNL1        0.0116
     21 C          62.5220   92.4785    1.1823 C.ar    1  UNL1        0.0685
     22 C          63.4193   93.4753    0.5107 C.ar    1  UNL1        0.0116
     23 C          62.9750   94.1536   -0.7513 C.ar    1  UNL1        0.0155
     24 C          62.9662   91.8002    2.4443 C.1     1  UNL1        0.1004
     25 N          63.4104   91.1219    3.7063 N.1     1  UNL1       -0.1908
     26 C          62.2011   94.9156   -3.6351 C.ar    1  UNL1        0.0710
     27 C          62.6137   96.3523   -3.7605 C.ar    1  UNL1        0.0180
     28 C          63.6257   96.7546   -4.7921 C.ar    1  UNL1        0.0220
     29 C          64.2251   95.7203   -5.6981 C.ar    1  UNL1        0.0990
     30 N          63.8125   94.2836   -5.5726 N.ar    1  UNL1       -0.2410
     31 C          62.8005   93.8813   -4.5411 C.ar    1  UNL1        0.1136
@<TRIPOS>BOND
     1    13    14    1
     2    14    15    2
     3    14    16    2
     4    14     7    1
     5     7     8   ar
     6     8     9   ar
     7     9    10   ar
     8    10     1    1
     9     1     2    1
    10     2     3    1
    11     3     4    1
    12     4    17    1
    13    17    18    1
    14    18    19   ar
    15    19    20   ar
    16    20    21   ar
    17    21    24    1
    18    24    25    3
    19    21    22   ar
    20    22    23   ar
    21    17    26    1
    22    26    27   ar
    23    27    28   ar
    24    28    29   ar
    25    29    30   ar
    26    30    31   ar
    27     4     5    1
    28     5     6    1
    29    10    11   ar
    30    11    12   ar
    31    12     7   ar
    32     6     1    1
    33    23    18   ar
    34    31    26   ar
@<TRIPOS>MOLECULE
*****
 31 34 0 0 0
SMALL
GASTEIGER

@<TRIPOS>ATOM
      1 N          57.5889   95.1626   -3.0571 N.pl3   1  UNL1       -0.3074
      2 C          58.1315   93.7645   -3.0865 C.3     1  UNL1        0.0925
      3 C          59.6047   93.5283   -2.9322 C.3     1  UNL1        0.0415
      4 C          60.5354   94.6902   -2.7484 C.3     1  UNL1        0.0807
      5 C          59.9928   96.0883   -2.7190 C.3     1  UNL1        0.0415
      6 C          58.5196   96.3245   -2.8734 C.3     1  UNL1        0.0925
      7 C          53.1693   95.8712   -3.5200 C.ar    1  UNL1        0.1058
      8 C          54.0534   95.8319   -4.7311 C.ar    1  UNL1        0.0196
      9 C          55.5267   95.5957   -4.5767 C.ar    1  UNL1        0.0158
     10 C          56.1157   95.3988   -3.2114 C.ar    1  UNL1        0.0479
     11 C          55.2315   95.4381   -2.0004 C.ar    1  UNL1        0.0158
     12 C          53.7583   95.6743   -2.1547 C.ar    1  UNL1        0.0196
     13 C          50.2228   96.3436   -3.8287 C.3     1  UNL1        0.1816
     14 S          51.6960   96.1074   -3.6744 S.O2    1  UNL1        0.0105
     15 O          51.9496   96.8559   -4.9493 O.2     1  UNL1       -0.1686
     16 O          51.4425   95.3588   -2.3995 O.2     1  UNL1       -0.1686
     17 N          62.0086   94.4540   -2.5941 N.pl3   1  UNL1       -0.2872
     18 C          62.7011   94.8418   -1.3213 C.ar    1  UNL1        0.0516
     19 C          62.5456   93.9930   -0.0943 C.ar    1  UNL1        0.0155
     20 C          63.2380   94.3808    1.1786 C.ar    1  UNL1        0.0116
     21 C          64.0860   95.6172    1.2244 C.ar    1  UNL1        0.0685
     22 C          64.2416   96.4659   -0.0026 C.ar    1  UNL1        0.0116
     23 C          63.5491   96.0782   -1.2755 C.ar    1  UNL1        0.0155
     24 C          64.7785   96.0050    2.4973 C.1     1  UNL1        0.1004
     25 N          65.4710   96.3927    3.7701 N.1     1  UNL1       -0.1908
     26 C          62.7894   93.8300   -3.7126 C.ar    1  UNL1        0.0710
     27 C          62.4819   94.1926   -5.1353 C.ar    1  UNL1        0.0180
     28 C          63.2627   93.5686   -6.2538 C.ar    1  UNL1        0.0220
     29 C          64.3510   92.5821   -5.9496 C.ar    1  UNL1        0.0990
     30 N          64.6584   92.2196   -4.5269 N.ar    1  UNL1       -0.2410
     31 C          63.8777   92.8435   -3.4084 C.ar    1  UNL1        0.1136
@<TRIPOS>BOND
     1    13    14    1
     2    14    15    2
     3    14    16    2
     4    14     7    1
     5     7     8   ar
     6     8     9   ar
     7     9    10   ar
     8    10     1    1
     9     1     2    1
    10     2     3    1
    11     3     4    1
    12     4    17    1
    13    17    18    1
    14    18    19   ar
    15    19    20   ar
    16    20    21   ar
    17    21    24    1
    18    24    25    3
    19    21    22   ar
    20    22    23   ar
    21    17    26    1
    22    26    27   ar
    23    27    28   ar
    24    28    29   ar
    25    29    30   ar
    26    30    31   ar
    27     4     5    1
    28     5     6    1
    29    10    11   ar
    30    11    12   ar
    31    12     7   ar
    32     6     1    1
    33    23    18   ar
    34    31    26   ar
@<TRIPOS>MOLECULE
*****
 31 34 0 0 0
SMALL
GASTEIGER

@<TRIPOS>ATOM
      1 N          60.8908   87.0252    9.3881 N.pl3   1  UNL1       -0.3074
      2 C          61.6508   85.8267    8.9025 C.3     1  UNL1        0.0925
      3 C          62.2158   84.8470    9.8879 C.3     1  UNL1        0.0415
      4 C          62.0207   85.0659   11.3590 C.3     1  UNL1        0.0807
      5 C          61.2607   86.2644   11.8446 C.3     1  UNL1        0.0415
      6 C          60.6957   87.2441   10.8591 C.3     1  UNL1        0.0925
      7 C          59.1959   89.9642    6.4318 C.ar    1  UNL1        0.1058
      8 C          58.9197   88.4982    6.2744 C.ar    1  UNL1        0.0196
      9 C          59.4847   87.5186    7.2599 C.ar    1  UNL1        0.0158
     10 C          60.3258   88.0048    8.4027 C.ar    1  UNL1        0.0479
     11 C          60.6020   89.4707    8.5600 C.ar    1  UNL1        0.0158
     12 C          60.0370   90.4504    7.5746 C.ar    1  UNL1        0.0196
     13 C          58.0659   91.9235    4.4609 C.3     1  UNL1        0.1816
     14 S          58.6309   90.9438    5.4463 S.O2    1  UNL1        0.0105
     15 O          60.0204   91.3310    5.0347 O.2     1  UNL1       -0.1686
     16 O          57.2414   90.5566    5.8580 O.2     1  UNL1       -0.1686
     17 N          62.5857   84.0862   12.3444 N.pl3   1  UNL1       -0.2872
     18 C          62.6773   82.6321   11.9879 C.ar    1  UNL1        0.0516
     19 C          62.2356   81.5894   12.9717 C.ar    1  UNL1        0.0155
     20 C          62.3272   80.1353   12.6152 C.ar    1  UNL1        0.0116
     21 C          62.8605   79.7238   11.2750 C.ar    1  UNL1        0.0685
     22 C          63.3022   80.7664   10.2912 C.ar    1  UNL1        0.0116
     23 C          63.2106   82.2206   10.6477 C.ar    1  UNL1        0.0155
     24 C          62.9521   78.2696   10.9186 C.1     1  UNL1        0.1004
     25 N          63.0437   76.8155   10.5621 N.1     1  UNL1       -0.1908
     26 C          63.0590   84.5607   13.6863 C.ar    1  UNL1        0.0710
     27 C          64.4336   85.1427   13.8340 C.ar    1  UNL1        0.0180
     28 C          64.9069   85.6172   15.1760 C.ar    1  UNL1        0.0220
     29 C          64.0057   85.5096   16.3702 C.ar    1  UNL1        0.0990
     30 N          62.6312   84.9275   16.2225 N.ar    1  UNL1       -0.2410
     31 C          62.1578   84.4531   14.8806 C.ar    1  UNL1        0.1136
@<TRIPOS>BOND
     1    13    14    1
     2    14    15    2
     3    14    16    2
     4    14     7    1
     5     7     8   ar
     6     8     9   ar
     7     9    10   ar
     8    10     1    1
     9     1     2    1
    10     2     3    1
    11     3     4    1
    12     4    17    1
    13    17    18    1
    14    18    19   ar
    15    19    20   ar
    16    20    21   ar
    17    21    24    1
    18    24    25    3
    19    21    22   ar
    20    22    23   ar
    21    17    26    1
    22    26    27   ar
    23    27    28   ar
    24    28    29   ar
    25    29    30   ar
    26    30    31   ar
    27     4     5    1
    28     5     6    1
    29    10    11   ar
    30    11    12   ar
    31    12     7   ar
    32     6     1    1
    33    23    18   ar
    34    31    26   ar
@<TRIPOS>MOLECULE
*****
 31 34 0 0 0
SMALL
GASTEIGER

@<TRIPOS>ATOM
      1 N          63.6662   86.4402   13.5672 N.pl3   1  UNL1       -0.3074
      2 C          63.2185   87.4132   12.5171 C.3     1  UNL1        0.0925
      3 C          63.6109   88.8575   12.6168 C.3     1  UNL1        0.0415
      4 C          64.4510   89.3288   13.7666 C.3     1  UNL1        0.0807
      5 C          64.8986   88.3558   14.8167 C.3     1  UNL1        0.0415
      6 C          64.5063   86.9115   14.7170 C.3     1  UNL1        0.0925
      7 C          62.4890   82.1072   13.2682 C.ar    1  UNL1        0.1058
      8 C          62.5874   82.7666   14.6118 C.ar    1  UNL1        0.0196
      9 C          62.9798   84.2109   14.7115 C.ar    1  UNL1        0.0158
     10 C          63.2738   84.9958   13.4675 C.ar    1  UNL1        0.0479
     11 C          63.1753   84.3364   12.1239 C.ar    1  UNL1        0.0158
     12 C          62.7830   82.8921   12.0242 C.ar    1  UNL1        0.0196
     13 C          61.7042   79.2185   13.0688 C.3     1  UNL1        0.1816
     14 S          62.0966   80.6628   13.1685 S.O2    1  UNL1        0.0105
     15 O          61.0944   80.8593   14.2672 O.2     1  UNL1       -0.1686
     16 O          63.0988   80.4664   12.0699 O.2     1  UNL1       -0.1686
     17 N          64.8433   90.7731   13.8663 N.pl3   1  UNL1       -0.2872
     18 C          65.3843   91.4881   12.6637 C.ar    1  UNL1        0.0516
     19 C          64.4558   91.9217   11.5683 C.ar    1  UNL1        0.0155
     20 C          64.9967   92.6366   10.3657 C.ar    1  UNL1        0.0116
     21 C          66.4662   92.9180   10.2585 C.ar    1  UNL1        0.0685
     22 C          67.3947   92.4845   11.3539 C.ar    1  UNL1        0.0116
     23 C          66.8538   91.7695   12.5565 C.ar    1  UNL1        0.0155
     24 C          67.0072   93.6330    9.0559 C.1     1  UNL1        0.1004
     25 N          67.5480   94.3479    7.8533 N.1     1  UNL1       -0.1908
     26 C          64.6948   91.5025   15.1685 C.ar    1  UNL1        0.0710
     27 C          65.8677   92.2258   15.7611 C.ar    1  UNL1        0.0180
     28 C          65.7191   92.9552   17.0634 C.ar    1  UNL1        0.0220
     29 C          64.3976   92.9614   17.7730 C.ar    1  UNL1        0.0990
     30 N          63.2247   92.2381   17.1804 N.ar    1  UNL1       -0.2410
     31 C          63.3732   91.5087   15.8782 C.ar    1  UNL1        0.1136
@<TRIPOS>BOND
     1    13    14    1
     2    14    15    2
     3    14    16    2
     4    14     7    1
     5     7     8   ar
     6     8     9   ar
     7     9    10   ar
     8    10     1    1
     9     1     2    1
    10     2     3    1
    11     3     4    1
    12     4    17    1
    13    17    18    1
    14    18    19   ar
    15    19    20   ar
    16    20    21   ar
    17    21    24    1
    18    24    25    3
    19    21    22   ar
    20    22    23   ar
    21    17    26    1
    22    26    27   ar
    23    27    28   ar
    24    28    29   ar
    25    29    30   ar
    26    30    31   ar
    27     4     5    1
    28     5     6    1
    29    10    11   ar
    30    11    12   ar
    31    12     7   ar
    32     6     1    1
    33    23    18   ar
    34    31    26   ar
