@<TRIPOS>MOLECULE
*****
 12 13 0 0 0
SMALL
GASTEIGER

@<TRIPOS>ATOM
      1 N          62.9640   90.2342   14.4694 N.pl3   1  UNL1       -0.2805
      2 N          63.8341   91.1107   15.3207 N.ar    1  UNL1       -0.1655
      3 N          63.4536   91.7171   16.6388 N.ar    1  UNL1       -0.0461
      4 N          64.6220   92.5158   17.1360 N.ar    1  UNL1       -0.1273
      5 C          65.7245   92.4029   16.1252 C.ar    1  UNL1        0.1236
      6 C          67.1089   92.9786   16.0815 C.ar    1  UNL1        0.0226
      7 C          68.0063   92.6860   14.9158 C.ar    1  UNL1        0.0017
      8 C          67.5194   91.8176   13.7939 C.ar    1  UNL1        0.0017
      9 C          66.1351   91.2418   13.8376 C.ar    1  UNL1        0.0223
     10 C          65.2376   91.5345   15.0033 C.ar    1  UNL1        0.1191
     11 H          62.0517   90.0108   14.7646 H       1  UNL1        0.1642
     12 H          63.3051   89.8824   13.6155 H       1  UNL1        0.1642
@<TRIPOS>BOND
     1     1     2    1
     2     2     3   ar
     3     3     4   ar
     4     4     5   ar
     5     5     6   ar
     6     6     7   ar
     7     7     8   ar
     8     8     9   ar
     9     9    10   ar
    10    10     2   ar
    11    10     5   ar
    12     1    11    1
    13     1    12    1
@<TRIPOS>MOLECULE
*****
 12 13 0 0 0
SMALL
GASTEIGER

@<TRIPOS>ATOM
      1 N          65.1942   84.7988   14.6282 N.pl3   1  UNL1       -0.2805
      2 N          64.3559   83.5963   14.3098 N.ar    1  UNL1       -0.1655
      3 N          63.6106   82.7534   15.3018 N.ar    1  UNL1       -0.0461
      4 N          62.9098   81.6618   14.5486 N.ar    1  UNL1       -0.1273
      5 C          63.2219   81.8301   13.0911 C.ar    1  UNL1        0.1236
      6 C          62.8078   81.0492   11.8792 C.ar    1  UNL1        0.0226
      7 C          63.2875   81.4638   10.5199 C.ar    1  UNL1        0.0017
      8 C          64.1812   82.6594   10.3723 C.ar    1  UNL1        0.0017
      9 C          64.5953   83.4404   11.5841 C.ar    1  UNL1        0.0223
     10 C          64.1157   83.0257   12.9435 C.ar    1  UNL1        0.1191
     11 H          65.2918   85.0977   15.5611 H       1  UNL1        0.1642
     12 H          65.6467   85.2890   13.9043 H       1  UNL1        0.1642
@<TRIPOS>BOND
     1     1     2    1
     2     2     3   ar
     3     3     4   ar
     4     4     5   ar
     5     5     6   ar
     6     6     7   ar
     7     7     8   ar
     8     8     9   ar
     9     9    10   ar
    10    10     2   ar
    11    10     5   ar
    12     1    11    1
    13     1    12    1
@<TRIPOS>MOLECULE
*****
 12 13 0 0 0
SMALL
GASTEIGER

@<TRIPOS>ATOM
      1 N          62.3690   81.8208   15.0372 N.pl3   1  UNL1       -0.2805
      2 N          62.4902   82.9971   14.1143 N.ar    1  UNL1       -0.1655
      3 N          62.1843   84.4242   14.4602 N.ar    1  UNL1       -0.0461
      4 N          62.4435   85.2618   13.2431 N.ar    1  UNL1       -0.1273
      5 C          62.9097   84.3524   12.1451 C.ar    1  UNL1        0.1236
      6 C          63.3116   84.6179   10.7246 C.ar    1  UNL1        0.0226
      7 C          63.7423   83.4837    9.8425 C.ar    1  UNL1        0.0017
      8 C          63.7711   82.0840   10.3810 C.ar    1  UNL1        0.0017
      9 C          63.3692   81.8185   11.8015 C.ar    1  UNL1        0.0223
     10 C          62.9385   82.9526   12.6836 C.ar    1  UNL1        0.1191
     11 H          62.0644   81.9517   15.9642 H       1  UNL1        0.1642
     12 H          62.5942   80.9178   14.7160 H       1  UNL1        0.1642
@<TRIPOS>BOND
     1     1     2    1
     2     2     3   ar
     3     3     4   ar
     4     4     5   ar
     5     5     6   ar
     6     6     7   ar
     7     7     8   ar
     8     8     9   ar
     9     9    10   ar
    10    10     2   ar
    11    10     5   ar
    12     1    11    1
    13     1    12    1
@<TRIPOS>MOLECULE
*****
 12 13 0 0 0
SMALL
GASTEIGER

@<TRIPOS>ATOM
      1 N          61.9838   84.5809   15.1686 N.pl3   1  UNL1       -0.2805
      2 N          62.7029   83.6010   14.2896 N.ar    1  UNL1       -0.1655
      3 N          63.2902   82.2914   14.7255 N.ar    1  UNL1       -0.0461
      4 N          63.9111   81.6396   13.5256 N.ar    1  UNL1       -0.1273
      5 C          63.7076   82.5464   12.3482 C.ar    1  UNL1        0.1236
      6 C          64.1057   82.4250   10.9071 C.ar    1  UNL1        0.0226
      7 C          63.7571   83.5157    9.9383 C.ar    1  UNL1        0.0017
      8 C          63.0104   84.7279   10.4105 C.ar    1  UNL1        0.0017
      9 C          62.6122   84.8494   11.8515 C.ar    1  UNL1        0.0223
     10 C          62.9608   83.7586   12.8204 C.ar    1  UNL1        0.1191
     11 H          61.8636   84.3871   16.1263 H       1  UNL1        0.1642
     12 H          61.6322   85.4179   14.7878 H       1  UNL1        0.1642
@<TRIPOS>BOND
     1     1     2    1
     2     2     3   ar
     3     3     4   ar
     4     4     5   ar
     5     5     6   ar
     6     6     7   ar
     7     7     8   ar
     8     8     9   ar
     9     9    10   ar
    10    10     2   ar
    11    10     5   ar
    12     1    11    1
    13     1    12    1
@<TRIPOS>MOLECULE
*****
 12 13 0 0 0
SMALL
GASTEIGER

@<TRIPOS>ATOM
      1 N          62.0062   84.8430   15.6662 N.pl3   1  UNL1       -0.2805
      2 N          62.4670   84.4184   14.3033 N.ar    1  UNL1       -0.1655
      3 N          63.0131   85.3204   13.2365 N.ar    1  UNL1       -0.0461
      4 N          63.3462   84.4767   12.0419 N.ar    1  UNL1       -0.1273
      5 C          63.0061   83.0531   12.3704 C.ar    1  UNL1        0.1236
      6 C          63.1209   81.7851   11.5774 C.ar    1  UNL1        0.0226
      7 C          62.6924   80.4810   12.1821 C.ar    1  UNL1        0.0017
      8 C          62.1490   80.4450   13.5798 C.ar    1  UNL1        0.0017
      9 C          62.0342   81.7130   14.3728 C.ar    1  UNL1        0.0223
     10 C          62.4627   83.0171   13.7681 C.ar    1  UNL1        0.1191
     11 H          62.0483   85.7914   15.9267 H       1  UNL1        0.1642
     12 H          61.6616   84.1732   16.3001 H       1  UNL1        0.1642
@<TRIPOS>BOND
     1     1     2    1
     2     2     3   ar
     3     3     4   ar
     4     4     5   ar
     5     5     6   ar
     6     6     7   ar
     7     7     8   ar
     8     8     9   ar
     9     9    10   ar
    10    10     2   ar
    11    10     5   ar
    12     1    11    1
    13     1    12    1
@<TRIPOS>MOLECULE
*****
 12 13 0 0 0
SMALL
GASTEIGER

@<TRIPOS>ATOM
      1 N          64.7764   90.8834   13.2477 N.pl3   1  UNL1       -0.2805
      2 N          64.1591   90.4944   14.5583 N.ar    1  UNL1       -0.1655
      3 N          63.6002   91.4360   15.5835 N.ar    1  UNL1       -0.0461
      4 N          63.0880   90.6191   16.7325 N.ar    1  UNL1       -0.1273
      5 C          63.3304   89.1727   16.4175 C.ar    1  UNL1        0.1236
      6 C          63.0338   87.9158   17.1806 C.ar    1  UNL1        0.0226
      7 C          63.3992   86.5820   16.5999 C.ar    1  UNL1        0.0017
      8 C          64.0612   86.5050   15.2561 C.ar    1  UNL1        0.0017
      9 C          64.3578   87.7618   14.4930 C.ar    1  UNL1        0.0223
     10 C          63.9923   89.0956   15.0737 C.ar    1  UNL1        0.1191
     11 H          64.8412   91.8331   12.9967 H       1  UNL1        0.1642
     12 H          65.1168   90.1889   12.6385 H       1  UNL1        0.1642
@<TRIPOS>BOND
     1     1     2    1
     2     2     3   ar
     3     3     4   ar
     4     4     5   ar
     5     5     6   ar
     6     6     7   ar
     7     7     8   ar
     8     8     9   ar
     9     9    10   ar
    10    10     2   ar
    11    10     5   ar
    12     1    11    1
    13     1    12    1
@<TRIPOS>MOLECULE
*****
 12 13 0 0 0
SMALL
GASTEIGER

@<TRIPOS>ATOM
      1 N          62.8930   83.5460   13.7855 N.pl3   1  UNL1       -0.2805
      2 N          63.3595   83.4970   12.3607 N.ar    1  UNL1       -0.1655
      3 N          64.3745   82.5469   11.7976 N.ar    1  UNL1       -0.0461
      4 N          64.5352   82.8521   10.3378 N.ar    1  UNL1       -0.1273
      5 C          63.6195   83.9908    9.9988 C.ar    1  UNL1        0.1236
      6 C          63.3535   84.7163    8.7131 C.ar    1  UNL1        0.0226
      7 C          62.3609   85.8403    8.6778 C.ar    1  UNL1        0.0017
      8 C          61.6342   86.2388    9.9281 C.ar    1  UNL1        0.0017
      9 C          61.9003   85.5134   11.2137 C.ar    1  UNL1        0.0223
     10 C          62.8929   84.3894   11.2490 C.ar    1  UNL1        0.1191
     11 H          63.2604   82.9149   14.4458 H       1  UNL1        0.1642
     12 H          62.2194   84.2094   14.0604 H       1  UNL1        0.1642
@<TRIPOS>BOND
     1     1     2    1
     2     2     3   ar
     3     3     4   ar
     4     4     5   ar
     5     5     6   ar
     6     6     7   ar
     7     7     8   ar
     8     8     9   ar
     9     9    10   ar
    10    10     2   ar
    11    10     5   ar
    12     1    11    1
    13     1    12    1
@<TRIPOS>MOLECULE
*****
 12 13 0 0 0
SMALL
GASTEIGER

@<TRIPOS>ATOM
      1 N          63.1240   84.7667    9.9112 N.pl3   1  UNL1       -0.2805
      2 N          62.8836   84.5361   11.3738 N.ar    1  UNL1       -0.1655
      3 N          62.6980   85.5996   12.4152 N.ar    1  UNL1       -0.0461
      4 N          62.4863   84.9222   13.7367 N.ar    1  UNL1       -0.1273
      5 C          62.5411   83.4401   13.5120 C.ar    1  UNL1        0.1236
      6 C          62.3991   82.2771   14.4485 C.ar    1  UNL1        0.0226
      7 C          62.5027   80.8754   13.9247 C.ar    1  UNL1        0.0017
      8 C          62.7483   80.6368   12.4643 C.ar    1  UNL1        0.0017
      9 C          62.8902   81.7998   11.5277 C.ar    1  UNL1        0.0223
     10 C          62.7866   83.2015   12.0516 C.ar    1  UNL1        0.1191
     11 H          63.1717   85.6848    9.5589 H       1  UNL1        0.1642
     12 H          63.2340   83.9999    9.3035 H       1  UNL1        0.1642
@<TRIPOS>BOND
     1     1     2    1
     2     2     3   ar
     3     3     4   ar
     4     4     5   ar
     5     5     6   ar
     6     6     7   ar
     7     7     8   ar
     8     8     9   ar
     9     9    10   ar
    10    10     2   ar
    11    10     5   ar
    12     1    11    1
    13     1    12    1
@<TRIPOS>MOLECULE
*****
 12 13 0 0 0
SMALL
GASTEIGER

@<TRIPOS>ATOM
      1 N          64.7668   82.4825   12.1020 N.pl3   1  UNL1       -0.2805
      2 N          63.7875   83.6185   12.0870 N.ar    1  UNL1       -0.1655
      3 N          63.1242   84.2267   13.2871 N.ar    1  UNL1       -0.0461
      4 N          62.2262   85.3299   12.8110 N.ar    1  UNL1       -0.1273
      5 C          62.3346   85.4035   11.3167 C.ar    1  UNL1        0.1236
      6 C          61.6793   86.2971   10.3058 C.ar    1  UNL1        0.0226
      7 C          61.9889   86.1329    8.8473 C.ar    1  UNL1        0.0017
      8 C          62.9538   85.0752    8.3998 C.ar    1  UNL1        0.0017
      9 C          63.6091   84.1817    9.4108 C.ar    1  UNL1        0.0223
     10 C          63.2995   84.3458   10.8693 C.ar    1  UNL1        0.1191
     11 H          65.0266   82.0678   12.9563 H       1  UNL1        0.1642
     12 H          65.1498   82.1515   11.2576 H       1  UNL1        0.1642
@<TRIPOS>BOND
     1     1     2    1
     2     2     3   ar
     3     3     4   ar
     4     4     5   ar
     5     5     6   ar
     6     6     7   ar
     7     7     8   ar
     8     8     9   ar
     9     9    10   ar
    10    10     2   ar
    11    10     5   ar
    12     1    11    1
    13     1    12    1
