@<TRIPOS>MOLECULE
*****
 66 74 0 0 0
SMALL
GASTEIGER

@<TRIPOS>ATOM
      1 N          61.8352   93.8976   -6.8660 N.3     1  UNL1       -0.1862
      2 C          60.5344   93.5059   -7.5020 C.3     1  UNL1        0.1775
      3 C          59.2393   93.8088   -6.8085 C.2     1  UNL1        0.2452
      4 O          57.9385   93.4171   -7.4446 O.2     1  UNL1       -0.2732
      5 N          59.2450   94.5032   -5.4790 N.am    1  UNL1       -0.2541
      6 C          57.9498   94.8060   -4.7855 C.3     1  UNL1        0.1577
      7 C          57.9555   95.5005   -3.4560 C.2     1  UNL1        0.2445
      8 O          56.6603   95.8033   -2.7625 O.2     1  UNL1       -0.2731
      9 N          59.2563   95.8922   -2.8199 N.am    1  UNL1       -0.2705
     10 C          60.5514   95.5894   -3.5134 C.3     1  UNL1        0.1359
     11 C          60.5457   94.8948   -4.8430 C.3     1  UNL1        0.1908
     12 N          61.8409   94.5920   -5.5365 N.am    1  UNL1       -0.1863
     13 C          63.1417   94.9837   -4.9004 C.2     1  UNL1        0.3191
     14 O          63.1473   95.6782   -3.5709 O.2     1  UNL1       -0.2512
     15 N          64.4368   94.6809   -5.5939 N.am    1  UNL1       -0.2836
     16 H          64.4331   94.2251   -6.4665 H       1  UNL1        0.1513
     17 C          63.1303   93.5947   -7.5595 C.3     1  UNL1        0.1188
     18 C          64.3922   91.8883   -6.0610 C.2     1  UNL1       -0.0034
     19 C          63.7814   92.2553   -7.3809 C.2     1  UNL1       -0.0071
     20 C          56.6491   94.4144   -5.4215 C.3     1  UNL1        0.0556
     21 C          56.0899   93.0402   -5.2005 C.ar    1  UNL1       -0.0198
     22 C          56.1719   92.4064   -3.8435 C.ar    1  UNL1       -0.0011
     23 C          55.6127   91.0321   -3.6225 C.ar    1  UNL1        0.0363
     24 C          54.9716   90.2917   -4.7586 C.ar    1  UNL1        0.1337
     25 O          54.4124   88.9175   -4.5376 O.3     1  UNL1       -0.5055
     26 C          54.8895   90.9255   -6.1157 C.ar    1  UNL1        0.0363
     27 C          55.4487   92.2997   -6.3366 C.ar    1  UNL1       -0.0011
     28 H          54.4636   88.5216   -3.6899 H       1  UNL1        0.2922
     29 C          59.2619   96.5866   -1.4904 C.3     1  UNL1        0.1217
     30 C          60.0646   96.0251   -0.3543 C.ar    1  UNL1        0.0135
     31 C          61.3559   96.6756    0.0451 C.ar    1  UNL1       -0.0012
     32 C          62.1585   96.1141    1.1811 C.ar    1  UNL1       -0.0002
     33 C          61.6698   94.9023    1.9177 C.ar    1  UNL1        0.0016
     34 C          60.3785   94.2519    1.5183 C.ar    1  UNL1        0.0214
     35 C          59.6492   93.0559    2.0545 C.ar    1  UNL1        0.0722
     36 C          58.3958   92.8781    1.2499 C.ar    1  UNL1        0.0805
     37 N          58.3505   93.9643    0.2164 N.ar    1  UNL1       -0.3241
     38 C          57.2696   94.1660   -0.8038 C.3     1  UNL1        0.1305
     39 C          59.5759   94.8133    0.3823 C.ar    1  UNL1        0.0577
     40 C          60.0950   92.1896    3.1952 C.2     1  UNL1        0.2510
     41 O          61.5474   91.8514    3.3570 O.2     1  UNL1       -0.2698
     42 N          59.0884   91.6616    4.1739 N.am    1  UNL1       -0.2791
     43 H          58.1351   91.8836    4.0677 H       1  UNL1        0.1552
     44 C          59.5341   90.7954    5.3145 C.ar    1  UNL1        0.0701
     45 C          58.6390   89.7037    5.8214 C.ar    1  UNL1        0.0191
     46 C          59.0846   88.8374    6.9620 C.ar    1  UNL1        0.0356
     47 C          60.4253   89.0629    7.5957 C.ar    1  UNL1        0.1318
     48 N          61.3204   90.1547    7.0889 N.ar    1  UNL1       -0.2279
     49 C          60.8748   91.0209    5.9483 C.ar    1  UNL1        0.1149
     50 N          60.8710   88.1967    8.7363 N.pl3   1  UNL1       -0.2932
     51 C          60.8800   86.7043    8.5858 C.3     1  UNL1        0.0935
     52 C          61.3257   85.8380    9.7263 C.3     1  UNL1        0.0375
     53 C          61.7625   86.4641   11.0175 C.3     1  UNL1        0.0609
     54 C          61.7535   87.9565   11.1682 C.3     1  UNL1        0.0375
     55 C          61.3078   88.8229   10.0275 C.3     1  UNL1        0.0935
     56 N          62.2082   85.5980   12.1581 N.3     1  UNL1       -0.2737
     57 C          63.1531   85.7655   13.3110 C.3     1  UNL1        0.0735
     58 C          62.8386   84.3730   13.7713 C.3     1  UNL1        0.0346
     59 C          61.8936   84.2055   12.6185 C.3     1  UNL1        0.0735
     60 C          65.7376   95.0725   -4.9579 C.3     1  UNL1        0.1177
     61 C          66.9560   95.2788   -5.8081 C.ar    1  UNL1       -0.0025
     62 C          67.8493   94.1184   -6.1327 C.ar    1  UNL1       -0.0026
     63 C          69.0677   94.3247   -6.9829 C.ar    1  UNL1       -0.0003
     64 C          69.3930   95.6914   -7.5084 C.ar    1  UNL1       -0.0000
     65 C          68.4997   96.8519   -7.1838 C.ar    1  UNL1       -0.0003
     66 C          67.2813   96.6456   -6.3336 C.ar    1  UNL1       -0.0026
@<TRIPOS>BOND
     1    18    19    2
     2    19    17    1
     3    17     1    1
     4     1     2    1
     5     2     3    1
     6     3     4    2
     7     3     5   am
     8     5     6    1
     9     6    20    1
    10    20    21    1
    11    21    22   ar
    12    22    23   ar
    13    23    24   ar
    14    24    25    1
    15    24    26   ar
    16    26    27   ar
    17     6     7    1
    18     7     8    2
    19     7     9   am
    20     9    29    1
    21    29    30    1
    22    30    31   ar
    23    31    32   ar
    24    32    33   ar
    25    33    34   ar
    26    34    35   ar
    27    35    40    1
    28    40    41    2
    29    40    42   am
    30    42    44    1
    31    44    45   ar
    32    45    46   ar
    33    46    47   ar
    34    47    50    1
    35    50    51    1
    36    51    52    1
    37    52    53    1
    38    53    56    1
    39    56    57    1
    40    57    58    1
    41    58    59    1
    42    53    54    1
    43    54    55    1
    44    47    48   ar
    45    48    49   ar
    46    35    36   ar
    47    36    37   ar
    48    37    38    1
    49    37    39   ar
    50     9    10    1
    51    11    10    1
    52    11    12    1
    53    12    13   am
    54    13    14    2
    55    13    15   am
    56    15    60    1
    57    60    61    1
    58    61    62   ar
    59    62    63   ar
    60    63    64   ar
    61    64    65   ar
    62    65    66   ar
    63    12     1    1
    64    66    61   ar
    65    11     5    1
    66    27    21   ar
    67    39    30   ar
    68    39    34   ar
    69    49    44   ar
    70    55    50    1
    71    59    56    1
    72    25    28    1
    73    42    43    1
    74    15    16    1
@<TRIPOS>MOLECULE
*****
 66 74 0 0 0
SMALL
GASTEIGER

@<TRIPOS>ATOM
      1 N          62.0610   95.4994   -4.0686 N.3     1  UNL1       -0.1862
      2 C          60.9396   95.3089   -5.0464 C.3     1  UNL1        0.1775
      3 C          59.5901   94.8667   -4.5632 C.2     1  UNL1        0.2452
      4 O          58.4687   94.6761   -5.5410 O.2     1  UNL1       -0.2732
      5 N          59.3621   94.6150   -3.1021 N.am    1  UNL1       -0.2541
      6 C          58.0127   94.1728   -2.6189 C.3     1  UNL1        0.1577
      7 C          57.7846   93.9211   -1.1579 C.2     1  UNL1        0.2445
      8 O          56.4352   93.4789   -0.6747 O.2     1  UNL1       -0.2731
      9 N          58.9061   94.1116   -0.1800 N.am    1  UNL1       -0.2705
     10 C          60.2555   94.5538   -0.6632 C.3     1  UNL1        0.1359
     11 C          60.4835   94.8055   -2.1243 C.3     1  UNL1        0.1908
     12 N          61.8329   95.2477   -2.6076 N.am    1  UNL1       -0.1863
     13 C          62.9543   95.4382   -1.6297 C.2     1  UNL1        0.3191
     14 O          62.7263   95.1865   -0.1687 O.2     1  UNL1       -0.2512
     15 N          64.3038   95.8804   -2.1129 N.am    1  UNL1       -0.2836
     16 H          64.4534   96.0456   -3.0718 H       1  UNL1        0.1513
     17 C          63.4104   95.9416   -4.5518 C.3     1  UNL1        0.1188
     18 C          64.2356   94.8335   -6.7520 C.2     1  UNL1       -0.0034
     19 C          63.6897   96.0254   -6.0231 C.2     1  UNL1       -0.0071
     20 C          56.8913   93.9822   -3.5967 C.3     1  UNL1        0.0556
     21 C          56.2959   92.6204   -3.7991 C.ar    1  UNL1       -0.0198
     22 C          55.8575   92.1893   -5.1673 C.ar    1  UNL1       -0.0011
     23 C          55.2621   90.8275   -5.3697 C.ar    1  UNL1        0.0363
     24 C          55.1052   89.8968   -4.2040 C.ar    1  UNL1        0.1337
     25 O          54.5098   88.5350   -4.4064 O.3     1  UNL1       -0.5055
     26 C          55.5436   90.3278   -2.8357 C.ar    1  UNL1        0.0363
     27 C          56.1389   91.6897   -2.6333 C.ar    1  UNL1       -0.0011
     28 H          54.2359   88.2657   -5.2611 H       1  UNL1        0.2922
     29 C          58.6780   93.8599    1.2810 C.3     1  UNL1        0.1217
     30 C          59.6837   93.0783    2.0733 C.ar    1  UNL1        0.0135
     31 C          61.1207   93.0524    1.6438 C.ar    1  UNL1       -0.0012
     32 C          62.1264   92.2709    2.4360 C.ar    1  UNL1       -0.0002
     33 C          61.6951   91.5153    3.6579 C.ar    1  UNL1        0.0016
     34 C          60.2582   91.5412    4.0875 C.ar    1  UNL1        0.0214
     35 C          59.5431   90.8990    5.2391 C.ar    1  UNL1        0.0722
     36 C          58.0956   91.2836    5.1586 C.ar    1  UNL1        0.0805
     37 N          57.9159   92.1635    3.9572 N.ar    1  UNL1       -0.3241
     38 C          56.6262   92.7765    3.4983 C.3     1  UNL1        0.1305
     39 C          59.2525   92.3227    3.2952 C.ar    1  UNL1        0.0577
     40 C          60.1664   90.0254    6.2874 C.2     1  UNL1        0.2510
     41 O          61.4845   90.4057    6.8939 O.2     1  UNL1       -0.2698
     42 N          59.4714   88.7716    6.7290 N.am    1  UNL1       -0.2791
     43 H          58.6063   88.5221    6.3309 H       1  UNL1        0.1552
     44 C          60.0945   87.8981    7.7772 C.ar    1  UNL1        0.0701
     45 C          60.3085   88.4275    9.1643 C.ar    1  UNL1        0.0191
     46 C          60.9316   87.5540   10.2125 C.ar    1  UNL1        0.0356
     47 C          61.3408   86.1512    9.8736 C.ar    1  UNL1        0.1318
     48 N          61.1268   85.6219    8.4865 N.ar    1  UNL1       -0.2279
     49 C          60.5037   86.4954    7.4383 C.ar    1  UNL1        0.1149
     50 N          61.9639   85.2777   10.9218 N.pl3   1  UNL1       -0.2932
     51 C          62.0345   83.7935   10.7162 C.3     1  UNL1        0.0935
     52 C          62.6576   82.9199   11.7643 C.3     1  UNL1        0.0375
     53 C          63.2101   83.5305   13.0181 C.3     1  UNL1        0.0609
     54 C          63.1396   85.0147   13.2237 C.3     1  UNL1        0.0375
     55 C          62.5164   85.8883   12.1755 C.3     1  UNL1        0.0935
     56 N          63.8333   82.6570   14.0662 N.3     1  UNL1       -0.2737
     57 C          64.2811   81.2266   14.1258 C.3     1  UNL1        0.0735
     58 C          64.7145   81.4215   15.5485 C.3     1  UNL1        0.0346
     59 C          64.2666   82.8519   15.4889 C.3     1  UNL1        0.0735
     60 C          65.4252   96.0709   -1.1351 C.3     1  UNL1        0.1177
     61 C          65.2696   95.6095    0.2837 C.ar    1  UNL1       -0.0025
     62 C          65.2086   96.6135    1.3964 C.ar    1  UNL1       -0.0026
     63 C          65.0531   96.1522    2.8152 C.ar    1  UNL1       -0.0003
     64 C          64.9586   94.6868    3.1213 C.ar    1  UNL1       -0.0000
     65 C          65.0196   93.6827    2.0085 C.ar    1  UNL1       -0.0003
     66 C          65.1752   94.1441    0.5898 C.ar    1  UNL1       -0.0026
@<TRIPOS>BOND
     1    18    19    2
     2    19    17    1
     3    17     1    1
     4     1     2    1
     5     2     3    1
     6     3     4    2
     7     3     5   am
     8     5     6    1
     9     6    20    1
    10    20    21    1
    11    21    22   ar
    12    22    23   ar
    13    23    24   ar
    14    24    25    1
    15    24    26   ar
    16    26    27   ar
    17     6     7    1
    18     7     8    2
    19     7     9   am
    20     9    29    1
    21    29    30    1
    22    30    31   ar
    23    31    32   ar
    24    32    33   ar
    25    33    34   ar
    26    34    35   ar
    27    35    40    1
    28    40    41    2
    29    40    42   am
    30    42    44    1
    31    44    45   ar
    32    45    46   ar
    33    46    47   ar
    34    47    50    1
    35    50    51    1
    36    51    52    1
    37    52    53    1
    38    53    56    1
    39    56    57    1
    40    57    58    1
    41    58    59    1
    42    53    54    1
    43    54    55    1
    44    47    48   ar
    45    48    49   ar
    46    35    36   ar
    47    36    37   ar
    48    37    38    1
    49    37    39   ar
    50     9    10    1
    51    11    10    1
    52    11    12    1
    53    12    13   am
    54    13    14    2
    55    13    15   am
    56    15    60    1
    57    60    61    1
    58    61    62   ar
    59    62    63   ar
    60    63    64   ar
    61    64    65   ar
    62    65    66   ar
    63    12     1    1
    64    66    61   ar
    65    11     5    1
    66    27    21   ar
    67    39    30   ar
    68    39    34   ar
    69    49    44   ar
    70    55    50    1
    71    59    56    1
    72    25    28    1
    73    42    43    1
    74    15    16    1
@<TRIPOS>MOLECULE
*****
 66 74 0 0 0
SMALL
GASTEIGER

@<TRIPOS>ATOM
      1 N          62.8756   96.2046   -4.8898 N.3     1  UNL1       -0.1862
      2 C          61.9064   96.0005   -6.0163 C.3     1  UNL1        0.1775
      3 C          60.5339   95.4637   -5.7368 C.2     1  UNL1        0.2452
      4 O          59.5647   95.2596   -6.8634 O.2     1  UNL1       -0.2732
      5 N          60.1306   95.1310   -4.3309 N.am    1  UNL1       -0.2541
      6 C          58.7581   94.5942   -4.0515 C.3     1  UNL1        0.1577
      7 C          58.3548   94.2614   -2.6456 C.2     1  UNL1        0.2445
      8 O          56.9823   93.7246   -2.3661 O.2     1  UNL1       -0.2731
      9 N          59.3240   94.4655   -1.5190 N.am    1  UNL1       -0.2705
     10 C          60.6965   95.0024   -1.7985 C.3     1  UNL1        0.1359
     11 C          61.0998   95.3351   -3.2045 C.3     1  UNL1        0.1908
     12 N          62.4723   95.8719   -3.4839 N.am    1  UNL1       -0.1863
     13 C          63.4415   96.0760   -2.3574 C.2     1  UNL1        0.3191
     14 O          63.0382   95.7433   -0.9515 O.2     1  UNL1       -0.2512
     15 N          64.8140   96.6128   -2.6368 N.am    1  UNL1       -0.2836
     16 H          65.0787   96.8312   -3.5596 H       1  UNL1        0.1513
     17 C          64.2481   96.7414   -5.1693 C.3     1  UNL1        0.1188
     18 C          65.1682   94.3458   -5.5743 C.2     1  UNL1       -0.0034
     19 C          65.3137   95.8328   -5.7066 C.2     1  UNL1       -0.0071
     20 C          57.7889   94.3901   -5.1779 C.3     1  UNL1        0.0556
     21 C          56.4225   95.0054   -5.1125 C.ar    1  UNL1       -0.0198
     22 C          55.9017   95.5387   -3.8108 C.ar    1  UNL1       -0.0011
     23 C          54.5353   96.1541   -3.7454 C.ar    1  UNL1        0.0363
     24 C          53.6897   96.2362   -4.9816 C.ar    1  UNL1        0.1337
     25 O          52.3233   96.8515   -4.9161 O.3     1  UNL1       -0.5055
     26 C          54.2105   95.7029   -6.2833 C.ar    1  UNL1        0.0363
     27 C          55.5769   95.0875   -6.3488 C.ar    1  UNL1       -0.0011
     28 H          51.9980   97.1846   -4.1030 H       1  UNL1        0.2922
     29 C          58.9207   94.1328   -0.1131 C.3     1  UNL1        0.1217
     30 C          59.9251   93.5519    0.8377 C.ar    1  UNL1        0.0135
     31 C          61.3911   93.7648    0.6024 C.ar    1  UNL1       -0.0012
     32 C          62.3954   93.1839    1.5532 C.ar    1  UNL1       -0.0002
     33 C          61.9336   92.3902    2.7392 C.ar    1  UNL1        0.0016
     34 C          60.4676   92.1774    2.9745 C.ar    1  UNL1        0.0214
     35 C          59.7193   91.4452    4.0488 C.ar    1  UNL1        0.0722
     36 C          58.2526   91.5736    3.7619 C.ar    1  UNL1        0.0805
     37 N          58.0944   92.3850    2.5105 N.ar    1  UNL1       -0.3241
     38 C          56.7953   92.7579    1.8598 C.3     1  UNL1        0.1305
     39 C          59.4633   92.7582    2.0238 C.ar    1  UNL1        0.0577
     40 C          60.3306   90.7132    5.2067 C.2     1  UNL1        0.2510
     41 O          61.8183   90.7217    5.3984 O.2     1  UNL1       -0.2698
     42 N          59.4541   89.9726    6.1728 N.am    1  UNL1       -0.2791
     43 H          58.4777   89.9670    6.0469 H       1  UNL1        0.1552
     44 C          60.0653   89.2406    7.3306 C.ar    1  UNL1        0.0701
     45 C          60.7990   90.0007    8.3954 C.ar    1  UNL1        0.0191
     46 C          61.4102   89.2688    9.5533 C.ar    1  UNL1        0.0356
     47 C          61.2876   87.7767    9.6464 C.ar    1  UNL1        0.1318
     48 N          60.5538   87.0166    8.5816 N.ar    1  UNL1       -0.2279
     49 C          59.9426   87.7485    7.4237 C.ar    1  UNL1        0.1149
     50 N          61.8987   87.0447   10.8042 N.pl3   1  UNL1       -0.2932
     51 C          62.7184   87.7908   11.8149 C.3     1  UNL1        0.0935
     52 C          63.3296   87.0588   12.9728 C.3     1  UNL1        0.0375
     53 C          63.1211   85.5807   13.1201 C.3     1  UNL1        0.0609
     54 C          62.3014   84.8346   12.1094 C.3     1  UNL1        0.0375
     55 C          61.6902   85.5666   10.9515 C.3     1  UNL1        0.0935
     56 N          63.7322   84.8487   14.2779 N.3     1  UNL1       -0.2737
     57 C          65.0758   84.2450   14.5611 C.3     1  UNL1        0.0735
     58 C          64.5966   83.8134   15.9153 C.3     1  UNL1        0.0346
     59 C          63.2530   84.4172   15.6322 C.3     1  UNL1        0.0735
     60 C          65.7832   96.8169   -1.5104 C.3     1  UNL1        0.1177
     61 C          65.5899   96.0886   -0.2134 C.ar    1  UNL1       -0.0025
     62 C          65.7002   94.5933   -0.1692 C.ar    1  UNL1       -0.0026
     63 C          65.5069   93.8650    1.1278 C.ar    1  UNL1       -0.0003
     64 C          65.2033   94.6319    2.3806 C.ar    1  UNL1       -0.0000
     65 C          65.0930   96.1272    2.3365 C.ar    1  UNL1       -0.0003
     66 C          65.2863   96.8556    1.0395 C.ar    1  UNL1       -0.0026
@<TRIPOS>BOND
     1    18    19    2
     2    19    17    1
     3    17     1    1
     4     1     2    1
     5     2     3    1
     6     3     4    2
     7     3     5   am
     8     5     6    1
     9     6    20    1
    10    20    21    1
    11    21    22   ar
    12    22    23   ar
    13    23    24   ar
    14    24    25    1
    15    24    26   ar
    16    26    27   ar
    17     6     7    1
    18     7     8    2
    19     7     9   am
    20     9    29    1
    21    29    30    1
    22    30    31   ar
    23    31    32   ar
    24    32    33   ar
    25    33    34   ar
    26    34    35   ar
    27    35    40    1
    28    40    41    2
    29    40    42   am
    30    42    44    1
    31    44    45   ar
    32    45    46   ar
    33    46    47   ar
    34    47    50    1
    35    50    51    1
    36    51    52    1
    37    52    53    1
    38    53    56    1
    39    56    57    1
    40    57    58    1
    41    58    59    1
    42    53    54    1
    43    54    55    1
    44    47    48   ar
    45    48    49   ar
    46    35    36   ar
    47    36    37   ar
    48    37    38    1
    49    37    39   ar
    50     9    10    1
    51    11    10    1
    52    11    12    1
    53    12    13   am
    54    13    14    2
    55    13    15   am
    56    15    60    1
    57    60    61    1
    58    61    62   ar
    59    62    63   ar
    60    63    64   ar
    61    64    65   ar
    62    65    66   ar
    63    12     1    1
    64    66    61   ar
    65    11     5    1
    66    27    21   ar
    67    39    30   ar
    68    39    34   ar
    69    49    44   ar
    70    55    50    1
    71    59    56    1
    72    25    28    1
    73    42    43    1
    74    15    16    1
@<TRIPOS>MOLECULE
*****
 66 74 0 0 0
SMALL
GASTEIGER

@<TRIPOS>ATOM
      1 N          64.9815   85.3056   14.1155 N.3     1  UNL1       -0.1862
      2 C          65.4240   86.6348   14.6516 C.3     1  UNL1        0.1775
      3 C          64.6471   87.8740   14.3189 C.2     1  UNL1        0.2452
      4 O          65.0897   89.2032   14.8551 O.2     1  UNL1       -0.2732
      5 N          63.4276   87.7841   13.4502 N.am    1  UNL1       -0.2541
      6 C          62.6507   89.0233   13.1175 C.3     1  UNL1        0.1577
      7 C          61.4312   88.9334   12.2488 C.2     1  UNL1        0.2445
      8 O          60.6542   90.1727   11.9162 O.2     1  UNL1       -0.2731
      9 N          60.9886   87.6042   11.7127 N.am    1  UNL1       -0.2705
     10 C          61.7655   86.3650   12.0453 C.3     1  UNL1        0.1359
     11 C          62.9851   86.4549   12.9141 C.3     1  UNL1        0.1908
     12 N          63.7620   85.2157   13.2467 N.am    1  UNL1       -0.1863
     13 C          63.3194   83.8865   12.7106 C.2     1  UNL1        0.3191
     14 O          62.0999   83.7966   11.8419 O.2     1  UNL1       -0.2512
     15 N          64.0963   82.6472   13.0433 N.am    1  UNL1       -0.2836
     16 H          64.8967   82.7063   13.6134 H       1  UNL1        0.1513
     17 C          65.7584   84.0664   14.4481 C.3     1  UNL1        0.1188
     18 C          63.9156   83.3645   16.1397 C.2     1  UNL1       -0.0034
     19 C          65.2169   83.0872   15.4471 C.2     1  UNL1       -0.0071
     20 C          63.0932   90.3525   13.6536 C.3     1  UNL1        0.0556
     21 C          63.9855   91.2337   12.8307 C.ar    1  UNL1       -0.0198
     22 C          63.7781   91.3363   11.3487 C.ar    1  UNL1       -0.0011
     23 C          64.6705   92.2175   10.5257 C.ar    1  UNL1        0.0363
     24 C          65.7701   92.9962   11.1848 C.ar    1  UNL1        0.1337
     25 O          66.6624   93.8774   10.3618 O.3     1  UNL1       -0.5055
     26 C          65.9775   92.8936   12.6669 C.ar    1  UNL1        0.0363
     27 C          65.0852   92.0124   13.4898 C.ar    1  UNL1       -0.0011
     28 H          66.5329   93.9415    9.4361 H       1  UNL1        0.2922
     29 C          59.7691   87.5143   10.8439 C.3     1  UNL1        0.1217
     30 C          59.9069   87.5582    9.3509 C.ar    1  UNL1        0.0135
     31 C          60.1722   86.2962    8.5848 C.ar    1  UNL1       -0.0012
     32 C          60.3100   86.3400    7.0918 C.ar    1  UNL1       -0.0002
     33 C          60.1826   87.6459    6.3649 C.ar    1  UNL1        0.0016
     34 C          59.9174   88.9079    7.1310 C.ar    1  UNL1        0.0214
     35 C          59.7444   90.3315    6.6912 C.ar    1  UNL1        0.0722
     36 C          59.4996   91.1675    7.9124 C.ar    1  UNL1        0.0805
     37 N          59.5213   90.2605    9.1069 N.ar    1  UNL1       -0.3241
     38 C          59.3202   90.6769   10.5338 C.3     1  UNL1        0.1305
     39 C          59.7795   88.8641    8.6240 C.ar    1  UNL1        0.0577
     40 C          59.8054   90.8314    5.2782 C.2     1  UNL1        0.2510
     41 O          58.5902   90.7544    4.4023 O.2     1  UNL1       -0.2698
     42 N          61.0817   91.4083    4.7412 N.am    1  UNL1       -0.2791
     43 H          61.8792   91.4588    5.3162 H       1  UNL1        0.1552
     44 C          61.1428   91.9082    3.3283 C.ar    1  UNL1        0.0701
     45 C          62.4223   91.8076    2.5519 C.ar    1  UNL1        0.0191
     46 C          62.4835   92.3074    1.1390 C.ar    1  UNL1        0.0356
     47 C          61.2652   92.9079    0.5025 C.ar    1  UNL1        0.1318
     48 N          59.9857   93.0085    1.2788 N.ar    1  UNL1       -0.2279
     49 C          59.9245   92.5086    2.6918 C.ar    1  UNL1        0.1149
     50 N          61.3263   93.4077   -0.9104 N.pl3   1  UNL1       -0.2932
     51 C          60.0867   93.4228   -1.7549 C.3     1  UNL1        0.0935
     52 C          60.1477   93.9227   -3.1679 C.3     1  UNL1        0.0375
     53 C          61.4483   94.4075   -3.7364 C.3     1  UNL1        0.0609
     54 C          62.6880   94.3924   -2.8920 C.3     1  UNL1        0.0375
     55 C          62.6270   93.8925   -1.4789 C.3     1  UNL1        0.0935
     56 N          61.5094   94.9074   -5.1493 N.3     1  UNL1       -0.2737
     57 C          62.5346   95.6237   -5.9775 C.3     1  UNL1        0.0735
     58 C          61.5960   95.6144   -7.1475 C.3     1  UNL1        0.0346
     59 C          60.5709   94.8980   -6.3193 C.3     1  UNL1        0.0735
     60 C          63.6538   81.3181   12.5072 C.3     1  UNL1        0.1177
     61 C          62.4533   80.6353   13.0925 C.ar    1  UNL1       -0.0025
     62 C          61.3247   81.4505   13.6508 C.ar    1  UNL1       -0.0026
     63 C          60.1242   80.7678   14.2361 C.ar    1  UNL1       -0.0003
     64 C          60.0523   79.2698   14.2631 C.ar    1  UNL1       -0.0000
     65 C          61.1809   78.4545   13.7048 C.ar    1  UNL1       -0.0003
     66 C          62.3814   79.1372   13.1195 C.ar    1  UNL1       -0.0026
@<TRIPOS>BOND
     1    18    19    2
     2    19    17    1
     3    17     1    1
     4     1     2    1
     5     2     3    1
     6     3     4    2
     7     3     5   am
     8     5     6    1
     9     6    20    1
    10    20    21    1
    11    21    22   ar
    12    22    23   ar
    13    23    24   ar
    14    24    25    1
    15    24    26   ar
    16    26    27   ar
    17     6     7    1
    18     7     8    2
    19     7     9   am
    20     9    29    1
    21    29    30    1
    22    30    31   ar
    23    31    32   ar
    24    32    33   ar
    25    33    34   ar
    26    34    35   ar
    27    35    40    1
    28    40    41    2
    29    40    42   am
    30    42    44    1
    31    44    45   ar
    32    45    46   ar
    33    46    47   ar
    34    47    50    1
    35    50    51    1
    36    51    52    1
    37    52    53    1
    38    53    56    1
    39    56    57    1
    40    57    58    1
    41    58    59    1
    42    53    54    1
    43    54    55    1
    44    47    48   ar
    45    48    49   ar
    46    35    36   ar
    47    36    37   ar
    48    37    38    1
    49    37    39   ar
    50     9    10    1
    51    11    10    1
    52    11    12    1
    53    12    13   am
    54    13    14    2
    55    13    15   am
    56    15    60    1
    57    60    61    1
    58    61    62   ar
    59    62    63   ar
    60    63    64   ar
    61    64    65   ar
    62    65    66   ar
    63    12     1    1
    64    66    61   ar
    65    11     5    1
    66    27    21   ar
    67    39    30   ar
    68    39    34   ar
    69    49    44   ar
    70    55    50    1
    71    59    56    1
    72    25    28    1
    73    42    43    1
    74    15    16    1
