@<TRIPOS>MOLECULE
*****
 22 23 0 0 0
SMALL
GASTEIGER

@<TRIPOS>ATOM
      1 C          64.6586   82.2498   12.7077 C.3     1  UNL1        0.1114
      2 C          63.9224   83.3533   12.0075 C.ar    1  UNL1        0.2403
      3 C          63.9098   83.4133   10.5087 C.ar    1  UNL1        0.2280
      4 O          64.6334   82.3698    9.7102 O.3     1  UNL1       -0.4992
      5 C          63.1736   84.5167    9.8085 C.ar    1  UNL1        0.1795
      6 O          63.1609   84.5767    8.3097 O.3     1  UNL1       -0.5026
      7 C          62.4500   85.5602   10.6069 C.ar    1  UNL1        0.1155
      8 C          62.4626   85.5002   12.1056 C.ar    1  UNL1        0.2929
      9 N          63.1988   84.3968   12.8059 N.ar    1  UNL1       -0.1689
     10 H          65.0933   81.6805   10.1476 H       1  UNL1        0.2925
     11 H          63.6129   83.9248    7.8109 H       1  UNL1        0.2923
     12 C          63.2114   84.3368   14.3047 C.3     1  UNL1        0.2849
     13 C          62.1992   83.5009   15.0304 C.3     1  UNL1        0.2162
     14 O          62.2908   82.0044   14.9845 O.3     1  UNL1       -0.3762
     15 H          62.1337   81.6985   14.0775 H       1  UNL1        0.2107
     16 C          64.2362   85.1128   15.0777 C.3     1  UNL1        0.1068
     17 C          63.9493   86.5243   15.4966 C.ar    1  UNL1       -0.0153
     18 C          63.2387   86.7931   16.7899 C.ar    1  UNL1       -0.0040
     19 C          62.9517   88.2046   17.2088 C.ar    1  UNL1       -0.0003
     20 C          63.3754   89.3472   16.3342 C.ar    1  UNL1       -0.0000
     21 C          64.0860   89.0784   15.0409 C.ar    1  UNL1       -0.0003
     22 C          64.3729   87.6670   14.6220 C.ar    1  UNL1       -0.0040
@<TRIPOS>UNITY_ATOM_ATTR
9 1
charge 1
@<TRIPOS>BOND
     1     1     2    1
     2     2     3   ar
     3     3     4    1
     4     3     5   ar
     5     5     6    1
     6     5     7   ar
     7     7     8   ar
     8     8     9   ar
     9     9    12    1
    10    12    13    1
    11    13    14    1
    12    12    16    1
    13    16    17    1
    14    17    18   ar
    15    18    19   ar
    16    19    20   ar
    17    20    21   ar
    18    21    22   ar
    19     9     2   ar
    20    22    17   ar
    21     4    10    1
    22     6    11    1
    23    14    15    1
@<TRIPOS>MOLECULE
*****
 22 23 0 0 0
SMALL
GASTEIGER

@<TRIPOS>ATOM
      1 C          67.8907   91.4589   15.4944 C.3     1  UNL1        0.1114
      2 C          67.2929   91.7511   14.1501 C.ar    1  UNL1        0.2403
      3 C          68.1839   91.9412   12.9585 C.ar    1  UNL1        0.2280
      4 O          69.6726   91.8391   13.1112 O.3     1  UNL1       -0.4992
      5 C          67.5862   92.2335   11.6141 C.ar    1  UNL1        0.1795
      6 O          68.4772   92.4236   10.4224 O.3     1  UNL1       -0.5026
      7 C          66.0975   92.3356   11.4613 C.ar    1  UNL1        0.1155
      8 C          65.2065   92.1454   12.6530 C.ar    1  UNL1        0.2929
      9 N          65.8043   91.8532   13.9973 N.ar    1  UNL1       -0.1689
     10 H          70.0460   91.6566   13.9509 H       1  UNL1        0.2925
     11 H          69.4072   92.3598   10.5179 H       1  UNL1        0.2923
     12 C          64.9132   91.6631   15.1890 C.3     1  UNL1        0.2849
     13 C          65.2676   92.3006   16.4997 C.3     1  UNL1        0.2162
     14 O          64.2439   93.1070   17.2426 O.3     1  UNL1       -0.3762
     15 H          64.0237   93.9007   16.7303 H       1  UNL1        0.2107
     16 C          63.6679   90.8355   15.0699 C.3     1  UNL1        0.1068
     17 C          63.6955   89.3816   15.4380 C.ar    1  UNL1       -0.0153
     18 C          63.0693   88.9207   16.7208 C.ar    1  UNL1       -0.0040
     19 C          63.0968   87.4669   17.0890 C.ar    1  UNL1       -0.0003
     20 C          63.7506   86.4739   16.1744 C.ar    1  UNL1       -0.0000
     21 C          64.3768   86.9348   14.8916 C.ar    1  UNL1       -0.0003
     22 C          64.3493   88.3886   14.5234 C.ar    1  UNL1       -0.0040
@<TRIPOS>UNITY_ATOM_ATTR
9 1
charge 1
@<TRIPOS>BOND
     1     1     2    1
     2     2     3   ar
     3     3     4    1
     4     3     5   ar
     5     5     6    1
     6     5     7   ar
     7     7     8   ar
     8     8     9   ar
     9     9    12    1
    10    12    13    1
    11    13    14    1
    12    12    16    1
    13    16    17    1
    14    17    18   ar
    15    18    19   ar
    16    19    20   ar
    17    20    21   ar
    18    21    22   ar
    19     9     2   ar
    20    22    17   ar
    21     4    10    1
    22     6    11    1
    23    14    15    1
@<TRIPOS>MOLECULE
*****
 22 23 0 0 0
SMALL
GASTEIGER

@<TRIPOS>ATOM
      1 C          65.0564   91.3821   15.0546 C.3     1  UNL1        0.1114
      2 C          64.4160   91.2051   13.7098 C.ar    1  UNL1        0.2403
      3 C          63.1705   90.3802   13.5749 C.ar    1  UNL1        0.2280
      4 O          62.5654   89.7322   14.7849 O.3     1  UNL1       -0.4992
      5 C          62.5301   90.2031   12.2301 C.ar    1  UNL1        0.1795
      6 O          61.2846   89.3781   12.0953 O.3     1  UNL1       -0.5026
      7 C          63.1352   90.8511   11.0202 C.ar    1  UNL1        0.1155
      8 C          64.3807   91.6760   11.1550 C.ar    1  UNL1        0.2929
      9 N          65.0211   91.8530   12.4999 N.ar    1  UNL1       -0.1689
     10 H          62.9654   89.8427   15.6250 H       1  UNL1        0.2925
     11 H          60.9066   88.9734   12.8511 H       1  UNL1        0.2923
     12 C          66.2666   92.6780   12.6347 C.3     1  UNL1        0.2849
     13 C          67.5743   92.0154   12.9523 C.3     1  UNL1        0.2162
     14 O          68.4448   92.5597   14.0458 O.3     1  UNL1       -0.3762
     15 H          68.7656   93.4403   13.7957 H       1  UNL1        0.2107
     16 C          66.2044   94.1655   12.4520 C.3     1  UNL1        0.1068
     17 C          66.5699   94.7748   11.1309 C.ar    1  UNL1       -0.0153
     18 C          66.3799   96.2455   10.9050 C.ar    1  UNL1       -0.0040
     19 C          66.7453   96.8548    9.5840 C.ar    1  UNL1       -0.0003
     20 C          67.3008   95.9935    8.4888 C.ar    1  UNL1       -0.0000
     21 C          67.4907   94.5228    8.7147 C.ar    1  UNL1       -0.0003
     22 C          67.1253   93.9135   10.0357 C.ar    1  UNL1       -0.0040
@<TRIPOS>UNITY_ATOM_ATTR
9 1
charge 1
@<TRIPOS>BOND
     1     1     2    1
     2     2     3   ar
     3     3     4    1
     4     3     5   ar
     5     5     6    1
     6     5     7   ar
     7     7     8   ar
     8     8     9   ar
     9     9    12    1
    10    12    13    1
    11    13    14    1
    12    12    16    1
    13    16    17    1
    14    17    18   ar
    15    18    19   ar
    16    19    20   ar
    17    20    21   ar
    18    21    22   ar
    19     9     2   ar
    20    22    17   ar
    21     4    10    1
    22     6    11    1
    23    14    15    1
@<TRIPOS>MOLECULE
*****
 22 23 0 0 0
SMALL
GASTEIGER

@<TRIPOS>ATOM
      1 C          63.3873   90.0067   14.0294 C.3     1  UNL1        0.1114
      2 C          63.9292   90.8546   12.9170 C.ar    1  UNL1        0.2403
      3 C          65.1058   91.7519   13.1628 C.ar    1  UNL1        0.2280
      4 O          65.7406   91.8014   14.5210 O.3     1  UNL1       -0.4992
      5 C          65.6477   92.5998   12.0503 C.ar    1  UNL1        0.1795
      6 O          66.8243   93.4972   12.2961 O.3     1  UNL1       -0.5026
      7 C          65.0130   92.5504   10.6922 C.ar    1  UNL1        0.1155
      8 C          63.8364   91.6530   10.4464 C.ar    1  UNL1        0.2929
      9 N          63.2945   90.8052   11.5588 N.ar    1  UNL1       -0.1689
     10 H          65.4021   91.2718   15.2159 H       1  UNL1        0.2925
     11 H          67.2208   93.5280   13.1446 H       1  UNL1        0.2923
     12 C          62.1179   89.9078   11.3130 C.3     1  UNL1        0.2849
     13 C          60.7439   90.3416   11.7300 C.3     1  UNL1        0.2162
     14 O          60.0525   89.6511   12.8681 O.3     1  UNL1       -0.3762
     15 H          59.8649   88.7317   12.6224 H       1  UNL1        0.2107
     16 C          62.3153   88.5768   10.6503 C.3     1  UNL1        0.1068
     17 C          61.3305   88.0953    9.6263 C.ar    1  UNL1       -0.0153
     18 C          61.1705   86.6256    9.3726 C.ar    1  UNL1       -0.0040
     19 C          60.1857   86.1441    8.3487 C.ar    1  UNL1       -0.0003
     20 C          59.3609   87.1324    7.5786 C.ar    1  UNL1       -0.0000
     21 C          59.5209   88.6021    7.8324 C.ar    1  UNL1       -0.0003
     22 C          60.5057   89.0835    8.8562 C.ar    1  UNL1       -0.0040
@<TRIPOS>UNITY_ATOM_ATTR
9 1
charge 1
@<TRIPOS>BOND
     1     1     2    1
     2     2     3   ar
     3     3     4    1
     4     3     5   ar
     5     5     6    1
     6     5     7   ar
     7     7     8   ar
     8     8     9   ar
     9     9    12    1
    10    12    13    1
    11    13    14    1
    12    12    16    1
    13    16    17    1
    14    17    18   ar
    15    18    19   ar
    16    19    20   ar
    17    20    21   ar
    18    21    22   ar
    19     9     2   ar
    20    22    17   ar
    21     4    10    1
    22     6    11    1
    23    14    15    1
@<TRIPOS>MOLECULE
*****
 22 23 0 0 0
SMALL
GASTEIGER

@<TRIPOS>ATOM
      1 C          63.1446   91.4266   10.0836 C.3     1  UNL1        0.1114
      2 C          63.6211   91.1309   11.4748 C.ar    1  UNL1        0.2403
      3 C          64.7541   91.9185   12.0629 C.ar    1  UNL1        0.2280
      4 O          65.4107   93.0020   11.2597 O.3     1  UNL1       -0.4992
      5 C          65.2306   91.6227   13.4541 C.ar    1  UNL1        0.1795
      6 O          66.3637   92.4105   14.0421 O.3     1  UNL1       -0.5026
      7 C          64.5741   90.5393   14.2572 C.ar    1  UNL1        0.1155
      8 C          63.4411   89.7516   13.6692 C.ar    1  UNL1        0.2929
      9 N          62.9646   90.0474   12.2780 N.ar    1  UNL1       -0.1689
     10 H          65.1130   93.1868   10.3906 H       1  UNL1        0.2925
     11 H          66.7738   93.0873   13.5404 H       1  UNL1        0.2923
     12 C          61.8315   89.2597   11.6899 C.3     1  UNL1        0.2849
     13 C          60.4158   89.5957   12.0546 C.3     1  UNL1        0.2162
     14 O          59.4461   88.5000   12.3847 O.3     1  UNL1       -0.3762
     15 H          59.2865   87.9605   11.5946 H       1  UNL1        0.2107
     16 C          62.1141   88.1360   10.7374 C.3     1  UNL1        0.1068
     17 C          61.1736   87.8611    9.6016 C.ar    1  UNL1       -0.0153
     18 C          60.9036   86.4481    9.1767 C.ar    1  UNL1       -0.0040
     19 C          59.9631   86.1731    8.0410 C.ar    1  UNL1       -0.0003
     20 C          59.2927   87.3111    7.3302 C.ar    1  UNL1       -0.0000
     21 C          59.5626   88.7241    7.7551 C.ar    1  UNL1       -0.0003
     22 C          60.5031   88.9991    8.8908 C.ar    1  UNL1       -0.0040
@<TRIPOS>UNITY_ATOM_ATTR
9 1
charge 1
@<TRIPOS>BOND
     1     1     2    1
     2     2     3   ar
     3     3     4    1
     4     3     5   ar
     5     5     6    1
     6     5     7   ar
     7     7     8   ar
     8     8     9   ar
     9     9    12    1
    10    12    13    1
    11    13    14    1
    12    12    16    1
    13    16    17    1
    14    17    18   ar
    15    18    19   ar
    16    19    20   ar
    17    20    21   ar
    18    21    22   ar
    19     9     2   ar
    20    22    17   ar
    21     4    10    1
    22     6    11    1
    23    14    15    1
@<TRIPOS>MOLECULE
*****
 22 23 0 0 0
SMALL
GASTEIGER

@<TRIPOS>ATOM
      1 C          62.3632   85.8977   11.7213 C.3     1  UNL1        0.1114
      2 C          63.0531   86.8662   12.6356 C.ar    1  UNL1        0.2403
      3 C          63.1368   88.3174   12.2656 C.ar    1  UNL1        0.2280
      4 O          62.5306   88.8002   10.9813 O.3     1  UNL1       -0.4992
      5 C          63.8267   89.2859   13.1800 C.ar    1  UNL1        0.1795
      6 O          63.9104   90.7372   12.8099 O.3     1  UNL1       -0.5026
      7 C          64.4329   88.8032   14.4643 C.ar    1  UNL1        0.1155
      8 C          64.3492   87.3520   14.8343 C.ar    1  UNL1        0.2929
      9 N          63.6593   86.3835   13.9199 N.ar    1  UNL1       -0.1689
     10 H          62.0997   88.1952   10.4101 H       1  UNL1        0.2925
     11 H          63.5318   91.0387   12.0076 H       1  UNL1        0.2923
     12 C          63.5756   84.9322   14.2900 C.3     1  UNL1        0.2849
     13 C          62.5091   84.4589   15.2327 C.3     1  UNL1        0.2162
     14 O          62.1622   85.2743   16.4429 O.3     1  UNL1       -0.3762
     15 H          62.9191   85.2911   17.0494 H       1  UNL1        0.2107
     16 C          64.5583   83.9543   13.7173 C.3     1  UNL1        0.1068
     17 C          64.1137   82.9626   12.6834 C.ar    1  UNL1       -0.0153
     18 C          64.4647   83.1752   11.2406 C.ar    1  UNL1       -0.0040
     19 C          64.0202   82.1836   10.2066 C.ar    1  UNL1       -0.0003
     20 C          63.2247   80.9794   10.6155 C.ar    1  UNL1       -0.0000
     21 C          62.8737   80.7669   12.0583 C.ar    1  UNL1       -0.0003
     22 C          63.3182   81.7585   13.0922 C.ar    1  UNL1       -0.0040
@<TRIPOS>UNITY_ATOM_ATTR
9 1
charge 1
@<TRIPOS>BOND
     1     1     2    1
     2     2     3   ar
     3     3     4    1
     4     3     5   ar
     5     5     6    1
     6     5     7   ar
     7     7     8   ar
     8     8     9   ar
     9     9    12    1
    10    12    13    1
    11    13    14    1
    12    12    16    1
    13    16    17    1
    14    17    18   ar
    15    18    19   ar
    16    19    20   ar
    17    20    21   ar
    18    21    22   ar
    19     9     2   ar
    20    22    17   ar
    21     4    10    1
    22     6    11    1
    23    14    15    1
@<TRIPOS>MOLECULE
*****
 22 23 0 0 0
SMALL
GASTEIGER

@<TRIPOS>ATOM
      1 C          63.3199   89.6502   13.7861 C.3     1  UNL1        0.1114
      2 C          63.8269   90.6053   12.7465 C.ar    1  UNL1        0.2403
      3 C          65.0295   91.4553   13.0317 C.ar    1  UNL1        0.2280
      4 O          65.7251   91.3501   14.3566 O.3     1  UNL1       -0.4992
      5 C          65.5365   92.4104   11.9922 C.ar    1  UNL1        0.1795
      6 O          66.7391   93.2604   12.2774 O.3     1  UNL1       -0.5026
      7 C          64.8409   92.5156   10.6674 C.ar    1  UNL1        0.1155
      8 C          63.6384   91.6656   10.3822 C.ar    1  UNL1        0.2929
      9 N          63.1314   90.7105   11.4217 N.ar    1  UNL1       -0.1689
     10 H          65.4084   90.7535   15.0060 H       1  UNL1        0.2925
     11 H          67.1736   93.1947   13.1050 H       1  UNL1        0.2923
     12 C          61.9287   89.8605   11.1365 C.3     1  UNL1        0.2849
     13 C          60.7179   89.9547   12.0168 C.3     1  UNL1        0.2162
     14 O          59.5916   90.8737   11.6473 O.3     1  UNL1       -0.3762
     15 H          59.8967   91.7934   11.6920 H       1  UNL1        0.2107
     16 C          61.9370   88.9165    9.9709 C.3     1  UNL1        0.1068
     17 C          62.2561   87.4661   10.1826 C.ar    1  UNL1       -0.0153
     18 C          62.3172   86.9069   11.5731 C.ar    1  UNL1       -0.0040
     19 C          62.6363   85.4566   11.7849 C.ar    1  UNL1       -0.0003
     20 C          62.8943   84.5656   10.6061 C.ar    1  UNL1       -0.0000
     21 C          62.8333   85.1249    9.2156 C.ar    1  UNL1       -0.0003
     22 C          62.5142   86.5751    9.0039 C.ar    1  UNL1       -0.0040
@<TRIPOS>UNITY_ATOM_ATTR
9 1
charge 1
@<TRIPOS>BOND
     1     1     2    1
     2     2     3   ar
     3     3     4    1
     4     3     5   ar
     5     5     6    1
     6     5     7   ar
     7     7     8   ar
     8     8     9   ar
     9     9    12    1
    10    12    13    1
    11    13    14    1
    12    12    16    1
    13    16    17    1
    14    17    18   ar
    15    18    19   ar
    16    19    20   ar
    17    20    21   ar
    18    21    22   ar
    19     9     2   ar
    20    22    17   ar
    21     4    10    1
    22     6    11    1
    23    14    15    1
@<TRIPOS>MOLECULE
*****
 22 23 0 0 0
SMALL
GASTEIGER

@<TRIPOS>ATOM
      1 C          62.0506   84.9344   11.4687 C.3     1  UNL1        0.1114
      2 C          62.8245   85.7961   12.4219 C.ar    1  UNL1        0.2403
      3 C          63.6239   85.1654   13.5232 C.ar    1  UNL1        0.2280
      4 O          63.6495   83.6729   13.6715 O.3     1  UNL1       -0.4992
      5 C          64.3978   86.0271   14.4764 C.ar    1  UNL1        0.1795
      6 O          65.1973   85.3964   15.5778 O.3     1  UNL1       -0.5026
      7 C          64.3723   87.5195   14.3282 C.ar    1  UNL1        0.1155
      8 C          63.5728   88.1502   13.2268 C.ar    1  UNL1        0.2929
      9 N          62.7989   87.2885   12.2736 N.ar    1  UNL1       -0.1689
     10 H          63.1660   83.1346   13.0761 H       1  UNL1        0.2925
     11 H          65.2132   84.4641   15.6704 H       1  UNL1        0.2923
     12 C          61.9995   87.9193   11.1722 C.3     1  UNL1        0.2849
     13 C          60.6740   88.5526   11.4756 C.3     1  UNL1        0.2162
     14 O          60.5960   89.7107   12.4256 O.3     1  UNL1       -0.3762
     15 H          60.8425   89.4156   13.3161 H       1  UNL1        0.2107
     16 C          62.5255   87.9167    9.7675 C.3     1  UNL1        0.1068
     17 C          62.0812   86.8580    8.8022 C.ar    1  UNL1       -0.0153
     18 C          63.0656   85.8480    8.2914 C.ar    1  UNL1       -0.0040
     19 C          62.6214   84.7894    7.3261 C.ar    1  UNL1       -0.0003
     20 C          61.1927   84.7407    6.8715 C.ar    1  UNL1       -0.0000
     21 C          60.2084   85.7507    7.3823 C.ar    1  UNL1       -0.0003
     22 C          60.6526   86.8093    8.3476 C.ar    1  UNL1       -0.0040
@<TRIPOS>UNITY_ATOM_ATTR
9 1
charge 1
@<TRIPOS>BOND
     1     1     2    1
     2     2     3   ar
     3     3     4    1
     4     3     5   ar
     5     5     6    1
     6     5     7   ar
     7     7     8   ar
     8     8     9   ar
     9     9    12    1
    10    12    13    1
    11    13    14    1
    12    12    16    1
    13    16    17    1
    14    17    18   ar
    15    18    19   ar
    16    19    20   ar
    17    20    21   ar
    18    21    22   ar
    19     9     2   ar
    20    22    17   ar
    21     4    10    1
    22     6    11    1
    23    14    15    1
@<TRIPOS>MOLECULE
*****
 22 23 0 0 0
SMALL
GASTEIGER

@<TRIPOS>ATOM
      1 C          63.2683   90.7824   15.9507 C.3     1  UNL1        0.1114
      2 C          64.4907   91.3455   15.2885 C.ar    1  UNL1        0.2403
      3 C          65.3821   92.2903   16.0386 C.ar    1  UNL1        0.2280
      4 O          65.0511   92.6721   17.4509 O.3     1  UNL1       -0.4992
      5 C          66.6046   92.8534   15.3763 C.ar    1  UNL1        0.1795
      6 O          67.4960   93.7983   16.1265 O.3     1  UNL1       -0.5026
      7 C          66.9356   92.4717   13.9640 C.ar    1  UNL1        0.1155
      8 C          66.0442   91.5269   13.2140 C.ar    1  UNL1        0.2929
      9 N          64.8218   90.9638   13.8762 N.ar    1  UNL1       -0.1689
     10 H          64.2875   92.3204   17.8646 H       1  UNL1        0.2925
     11 H          67.2892   94.0368   17.0087 H       1  UNL1        0.2923
     12 C          63.9303   90.0189   13.1261 C.3     1  UNL1        0.2849
     13 C          63.8869   88.5682   13.5052 C.3     1  UNL1        0.2162
     14 O          64.6963   88.0720   14.6665 O.3     1  UNL1       -0.3762
     15 H          65.6407   88.1583   14.4627 H       1  UNL1        0.2107
     16 C          63.0824   90.5247   11.9968 C.3     1  UNL1        0.1068
     17 C          62.0664   89.6235   11.3598 C.ar    1  UNL1       -0.0153
     18 C          62.4452   88.7860   10.1744 C.ar    1  UNL1       -0.0040
     19 C          61.4293   87.8849    9.5374 C.ar    1  UNL1       -0.0003
     20 C          60.0346   87.8212   10.0858 C.ar    1  UNL1       -0.0000
     21 C          59.6558   88.6587   11.2712 C.ar    1  UNL1       -0.0003
     22 C          60.6717   89.5598   11.9082 C.ar    1  UNL1       -0.0040
@<TRIPOS>UNITY_ATOM_ATTR
9 1
charge 1
@<TRIPOS>BOND
     1     1     2    1
     2     2     3   ar
     3     3     4    1
     4     3     5   ar
     5     5     6    1
     6     5     7   ar
     7     7     8   ar
     8     8     9   ar
     9     9    12    1
    10    12    13    1
    11    13    14    1
    12    12    16    1
    13    16    17    1
    14    17    18   ar
    15    18    19   ar
    16    19    20   ar
    17    20    21   ar
    18    21    22   ar
    19     9     2   ar
    20    22    17   ar
    21     4    10    1
    22     6    11    1
    23    14    15    1
