@<TRIPOS>MOLECULE
*****
 51 58 0 0 0
SMALL
GASTEIGER

@<TRIPOS>ATOM
      1 C          59.7671   89.4975    6.9949 C.3     1  UNL1        0.1445
      2 C          58.4507   90.1006    6.6032 C.3     1  UNL1        0.0322
      3 C          58.3691   91.0194    5.4202 C.3     1  UNL1        0.0049
      4 C          57.0527   91.6225    5.0285 C.3     1  UNL1        0.0002
      5 C          59.6038   91.3350    4.6291 C.3     1  UNL1        0.0298
      6 C          60.9202   90.7319    5.0208 C.3     1  UNL1        0.1418
      7 O          61.0018   89.8132    6.2037 O.3     1  UNL1       -0.3537
      8 C          61.9601   91.2233    4.0580 C.3     1  UNL1        0.1373
      9 O          63.4177   90.8699    4.0783 O.3     1  UNL1       -0.3820
     10 C          61.2864   92.1301    3.0711 C.3     1  UNL1        0.0272
     11 C          62.7592   91.9641    2.8405 C.3     1  UNL1        0.0025
     12 C          61.8109   92.9019    1.8967 C.3     1  UNL1        0.0023
     13 C          63.2671   92.8329    1.5437 C.3     1  UNL1        0.0001
     14 C          63.7915   93.6047    0.3693 C.3     1  UNL1        0.0001
     15 C          62.8598   94.4455   -0.4521 C.3     1  UNL1        0.0023
     16 C          63.3842   95.2173   -1.6266 C.3     1  UNL1        0.0251
     17 C          64.3486   95.7629   -2.6376 C.3     1  UNL1        0.0024
     18 C          64.6509   94.5659   -1.1562 C.3     1  UNL1        0.0024
     19 C          62.4524   96.0581   -2.4480 C.3     1  UNL1        0.1177
     20 C          60.9962   96.1272   -2.0950 C.3     1  UNL1        0.0296
     21 C          60.4717   95.3554   -0.9206 C.3     1  UNL1        0.0025
     22 C          61.4035   94.5146   -0.0992 C.3     1  UNL1        0.0002
     23 C          59.9473   94.5836    0.2538 C.3     1  UNL1        0.0000
     24 C          60.8790   93.7428    1.0752 C.3     1  UNL1        0.0001
     25 C          59.4228   93.8118    1.4282 C.3     1  UNL1        0.0000
     26 C          58.8984   93.0400    2.6026 C.3     1  UNL1        0.0002
     27 C          59.8301   92.1992    3.4241 C.3     1  UNL1        0.0046
     28 C          58.4064   92.1705    3.8956 C.3     1  UNL1        0.0002
     29 H          63.8699   91.3206    3.3481 H       1  UNL1        0.2104
     30 C          59.8488   88.5788    8.1778 C.3     1  UNL1        0.1664
     31 C          60.0359   87.1049    7.9712 C.3     1  UNL1        0.1156
     32 C          58.6329   86.9996    7.4512 C.3     1  UNL1        0.0319
     33 C          61.4390   87.2102    8.4913 C.3     1  UNL1        0.0319
     34 O          60.2231   85.6310    7.7646 O.3     1  UNL1       -0.3843
     35 H          59.4081   85.2491    7.4030 H       1  UNL1        0.2103
     36 O          59.7432   89.1339    9.5673 O.3     1  UNL1       -0.3514
     37 C          61.4146   89.9992   11.3583 C.3     1  UNL1        0.0346
     38 C          60.7227   90.1679   10.0382 C.3     1  UNL1        0.1423
     39 O          62.9769   96.8299   -3.6225 O.3     1  UNL1       -0.3320
     40 C          62.2529   96.7818   -4.9353 C.3     1  UNL1        0.2518
     41 C          60.7547   96.7131   -4.9635 C.3     1  UNL1        0.1343
     42 N          60.0308   96.6650   -6.2764 N.3     1  UNL1       -0.2663
     43 C          60.8050   96.6856   -7.5610 C.3     1  UNL1        0.1048
     44 C          62.3031   96.7543   -7.5328 C.3     1  UNL1        0.1621
     45 O          63.0271   96.8024   -6.2199 O.3     1  UNL1       -0.3280
     46 C          58.5327   96.5963   -6.3046 C.3     1  UNL1        0.0751
     47 C          57.8042   95.7096   -5.3387 C.3     1  UNL1        0.0479
     48 C          57.1360   95.9106   -4.0108 C.3     1  UNL1        0.0749
     49 N          56.7740   94.4556   -3.9727 N.3     1  UNL1       -0.2713
     50 C          56.0455   93.5688   -3.0067 C.3     1  UNL1        0.0896
     51 C          57.4421   94.2544   -5.3005 C.3     1  UNL1        0.0749
@<TRIPOS>BOND
     1    37    38    1
     2    38    36    1
     3    30    36    1
     4    30     1    1
     5     1     2    1
     6     2     3    1
     7     3     4    1
     8     5     3    1
     9     5     6    1
    10     6     7    1
    11     6     8    1
    12     8     9    1
    13     8    10    1
    14    10    11    1
    15    10    12    1
    16    12    13    1
    17    13    14    1
    18    15    14    1
    19    15    16    1
    20    16    17    1
    21    16    18    1
    22    16    19    1
    23    19    39    1
    24    40    39    1
    25    40    41    1
    26    41    42    1
    27    42    46    1
    28    46    47    1
    29    47    48    1
    30    48    49    1
    31    49    50    1
    32    49    51    1
    33    42    43    1
    34    43    44    1
    35    44    45    1
    36    19    20    1
    37    20    21    1
    38    22    21    1
    39    22    23    1
    40    24    23    1
    41    24    25    1
    42    25    26    1
    43    26    27    1
    44    27    28    1
    45    30    31    1
    46    31    32    1
    47    31    33    1
    48    31    34    1
    49     7     1    1
    50    27    10    1
    51    27     5    1
    52    24    12    1
    53    22    15    1
    54    45    40    1
    55    24    22    1
    56    51    47    1
    57     9    29    1
    58    34    35    1
@<TRIPOS>MOLECULE
*****
 51 58 0 0 0
SMALL
GASTEIGER

@<TRIPOS>ATOM
      1 C          61.8941   95.2727   -4.5536 C.3     1  UNL1        0.1445
      2 C          63.2632   94.9432   -4.0369 C.3     1  UNL1        0.0322
      3 C          63.4239   94.3259   -2.6792 C.3     1  UNL1        0.0049
      4 C          64.7931   93.9965   -2.1625 C.3     1  UNL1        0.0002
      5 C          62.2156   94.0382   -1.8383 C.3     1  UNL1        0.0298
      6 C          60.8465   94.3677   -2.3551 C.3     1  UNL1        0.1418
      7 O          60.6857   94.9849   -3.7127 O.3     1  UNL1       -0.3537
      8 C          59.8482   93.9725   -1.3076 C.3     1  UNL1        0.1373
      9 O          58.3592   94.1244   -1.4068 O.3     1  UNL1       -0.3820
     10 C          60.6003   93.3988   -0.1434 C.3     1  UNL1        0.0272
     11 C          59.1122   93.4229    0.0437 C.3     1  UNL1        0.0025
     12 C          60.1419   92.8447    1.1729 C.3     1  UNL1        0.0023
     13 C          58.6788   92.8042    1.5010 C.3     1  UNL1        0.0001
     14 C          58.2204   92.2501    2.8173 C.3     1  UNL1        0.0001
     15 C          59.2251   91.7365    3.8057 C.3     1  UNL1        0.0023
     16 C          58.7667   91.1824    5.1220 C.3     1  UNL1        0.0251
     17 C          57.8486   90.7551    6.2286 C.3     1  UNL1        0.0024
     18 C          57.4431   91.5476    4.5180 C.3     1  UNL1        0.0024
     19 C          59.7715   90.6689    6.1104 C.3     1  UNL1        0.1177
     20 C          61.2345   90.7095    5.7824 C.3     1  UNL1        0.0296
     21 C          61.6930   91.2636    4.4660 C.3     1  UNL1        0.0025
     22 C          60.6883   91.7771    3.4777 C.3     1  UNL1        0.0002
     23 C          62.1514   91.8177    3.1496 C.3     1  UNL1        0.0000
     24 C          61.1467   92.3312    2.1613 C.3     1  UNL1        0.0001
     25 C          62.6098   92.3718    1.8332 C.3     1  UNL1        0.0000
     26 C          63.0682   92.9259    0.5169 C.3     1  UNL1        0.0002
     27 C          62.0635   93.4394   -0.4715 C.3     1  UNL1        0.0046
     28 C          63.4856   93.5442   -0.9368 C.3     1  UNL1        0.0002
     29 H          57.9455   93.7921   -0.5948 H       1  UNL1        0.2104
     30 C          61.7333   95.8900   -5.9112 C.3     1  UNL1        0.1664
     31 C          60.5188   95.5822   -6.7360 C.3     1  UNL1        0.1156
     32 C          61.1588   94.3085   -7.2031 C.3     1  UNL1        0.0319
     33 C          59.8789   96.8559   -6.2689 C.3     1  UNL1        0.0319
     34 O          59.3043   95.2745   -7.5608 O.3     1  UNL1       -0.3843
     35 H          59.4327   94.4316   -8.0234 H       1  UNL1        0.2103
     36 O          62.7871   96.8150   -6.4441 O.3     1  UNL1       -0.3514
     37 C          65.2049   95.9811   -6.9009 C.3     1  UNL1        0.0346
     38 C          63.8254   96.2998   -7.3962 C.3     1  UNL1        0.1423
     39 O          59.3131   90.1148    7.4268 O.3     1  UNL1       -0.3320
     40 C          59.7638   88.7530    7.8651 C.3     1  UNL1        0.2518
     41 C          60.6552   88.6073    9.0627 C.3     1  UNL1        0.1343
     42 N          61.1059   87.2455    9.5011 N.3     1  UNL1       -0.2663
     43 C          60.6652   86.0292    8.7418 C.3     1  UNL1        0.1048
     44 C          59.7738   86.1748    7.5443 C.3     1  UNL1        0.1621
     45 O          59.3231   87.5367    7.1059 O.3     1  UNL1       -0.3280
     46 C          61.9973   87.0999   10.6986 C.3     1  UNL1        0.0751
     47 C          62.4954   85.7439   11.1024 C.3     1  UNL1        0.0479
     48 C          63.1905   84.6163   10.3986 C.3     1  UNL1        0.0749
     49 N          63.1999   83.8262   11.6735 N.3     1  UNL1       -0.2713
     50 C          63.6981   82.4702   12.0773 C.3     1  UNL1        0.0896
     51 C          62.5048   84.9537   12.3774 C.3     1  UNL1        0.0749
@<TRIPOS>BOND
     1    37    38    1
     2    38    36    1
     3    30    36    1
     4    30     1    1
     5     1     2    1
     6     2     3    1
     7     3     4    1
     8     5     3    1
     9     5     6    1
    10     6     7    1
    11     6     8    1
    12     8     9    1
    13     8    10    1
    14    10    11    1
    15    10    12    1
    16    12    13    1
    17    13    14    1
    18    15    14    1
    19    15    16    1
    20    16    17    1
    21    16    18    1
    22    16    19    1
    23    19    39    1
    24    40    39    1
    25    40    41    1
    26    41    42    1
    27    42    46    1
    28    46    47    1
    29    47    48    1
    30    48    49    1
    31    49    50    1
    32    49    51    1
    33    42    43    1
    34    43    44    1
    35    44    45    1
    36    19    20    1
    37    20    21    1
    38    22    21    1
    39    22    23    1
    40    24    23    1
    41    24    25    1
    42    25    26    1
    43    26    27    1
    44    27    28    1
    45    30    31    1
    46    31    32    1
    47    31    33    1
    48    31    34    1
    49     7     1    1
    50    27    10    1
    51    27     5    1
    52    24    12    1
    53    22    15    1
    54    45    40    1
    55    24    22    1
    56    51    47    1
    57     9    29    1
    58    34    35    1
@<TRIPOS>MOLECULE
*****
 51 58 0 0 0
SMALL
GASTEIGER

@<TRIPOS>ATOM
      1 C          61.9410   95.4883   -4.2186 C.3     1  UNL1        0.1445
      2 C          63.3029   95.2076   -3.6560 C.3     1  UNL1        0.0322
      3 C          63.4394   94.5608   -2.3094 C.3     1  UNL1        0.0049
      4 C          64.8013   94.2803   -1.7468 C.3     1  UNL1        0.0002
      5 C          62.2140   94.1947   -1.5256 C.3     1  UNL1        0.0298
      6 C          60.8521   94.4753   -2.0882 C.3     1  UNL1        0.1418
      7 O          60.7156   95.1221   -3.4347 O.3     1  UNL1       -0.3537
      8 C          59.8334   94.0058   -1.0924 C.3     1  UNL1        0.1373
      9 O          58.3439   94.0920   -1.2474 O.3     1  UNL1       -0.3820
     10 C          60.5656   93.4351    0.0858 C.3     1  UNL1        0.0272
     11 C          59.0719   93.3857    0.2135 C.3     1  UNL1        0.0025
     12 C          60.0828   92.8241    1.3678 C.3     1  UNL1        0.0023
     13 C          58.6115   92.7074    1.6356 C.3     1  UNL1        0.0001
     14 C          58.1287   92.0965    2.9176 C.3     1  UNL1        0.0001
     15 C          59.1170   91.6023    3.9319 C.3     1  UNL1        0.0023
     16 C          58.6342   90.9913    5.2139 C.3     1  UNL1        0.0251
     17 C          57.6948   90.4918    6.2712 C.3     1  UNL1        0.0024
     18 C          57.3195   91.3121    4.5668 C.3     1  UNL1        0.0024
     19 C          59.6227   90.4971    6.2282 C.3     1  UNL1        0.1177
     20 C          61.0939   90.6138    5.9604 C.3     1  UNL1        0.0296
     21 C          61.5768   91.2248    4.6784 C.3     1  UNL1        0.0025
     22 C          60.5884   91.7190    3.6641 C.3     1  UNL1        0.0002
     23 C          62.0596   91.8357    3.3964 C.3     1  UNL1        0.0000
     24 C          61.0712   92.3299    2.3821 C.3     1  UNL1        0.0001
     25 C          62.5425   92.4467    2.1143 C.3     1  UNL1        0.0000
     26 C          63.0254   93.0576    0.8323 C.3     1  UNL1        0.0002
     27 C          62.0370   93.5518   -0.1820 C.3     1  UNL1        0.0046
     28 C          63.4697   93.7346   -0.5868 C.3     1  UNL1        0.0002
     29 H          57.9149   93.7186   -0.4616 H       1  UNL1        0.2104
     30 C          61.8045   96.1350   -5.5651 C.3     1  UNL1        0.1664
     31 C          60.5013   96.0609   -6.3041 C.3     1  UNL1        0.1156
     32 C          61.1630   95.2675   -7.3916 C.3     1  UNL1        0.0319
     33 C          59.8395   96.8543   -5.2166 C.3     1  UNL1        0.0319
     34 O          59.1980   95.9868   -7.0431 O.3     1  UNL1       -0.3843
     35 H          59.3206   95.4871   -7.8654 H       1  UNL1        0.2103
     36 O          62.9712   96.8559   -6.1726 O.3     1  UNL1       -0.3514
     37 C          65.4616   96.1312   -6.3243 C.3     1  UNL1        0.0346
     38 C          64.0593   96.0806   -6.8545 C.3     1  UNL1        0.1423
     39 O          59.1398   89.8862    7.5102 O.3     1  UNL1       -0.3320
     40 C          60.0959   89.1384    8.3915 C.3     1  UNL1        0.2518
     41 C          60.6980   89.8138    9.5879 C.3     1  UNL1        0.1343
     42 N          61.6541   89.0660   10.4692 N.3     1  UNL1       -0.2663
     43 C          62.0081   87.6429   10.1541 C.3     1  UNL1        0.1048
     44 C          61.4061   86.9675    8.9578 C.3     1  UNL1        0.1621
     45 O          60.4499   87.7152    8.0764 O.3     1  UNL1       -0.3280
     46 C          62.2562   89.7414   11.6655 C.3     1  UNL1        0.0751
     47 C          63.3238   90.7791   11.4828 C.3     1  UNL1        0.0479
     48 C          63.8133   91.6060   10.3310 C.3     1  UNL1        0.0749
     49 N          64.8336   92.2466   11.2243 N.3     1  UNL1       -0.2713
     50 C          65.9013   93.2843   11.0416 C.3     1  UNL1        0.0896
     51 C          64.3443   91.4198   12.3763 C.3     1  UNL1        0.0749
@<TRIPOS>BOND
     1    37    38    1
     2    38    36    1
     3    30    36    1
     4    30     1    1
     5     1     2    1
     6     2     3    1
     7     3     4    1
     8     5     3    1
     9     5     6    1
    10     6     7    1
    11     6     8    1
    12     8     9    1
    13     8    10    1
    14    10    11    1
    15    10    12    1
    16    12    13    1
    17    13    14    1
    18    15    14    1
    19    15    16    1
    20    16    17    1
    21    16    18    1
    22    16    19    1
    23    19    39    1
    24    40    39    1
    25    40    41    1
    26    41    42    1
    27    42    46    1
    28    46    47    1
    29    47    48    1
    30    48    49    1
    31    49    50    1
    32    49    51    1
    33    42    43    1
    34    43    44    1
    35    44    45    1
    36    19    20    1
    37    20    21    1
    38    22    21    1
    39    22    23    1
    40    24    23    1
    41    24    25    1
    42    25    26    1
    43    26    27    1
    44    27    28    1
    45    30    31    1
    46    31    32    1
    47    31    33    1
    48    31    34    1
    49     7     1    1
    50    27    10    1
    51    27     5    1
    52    24    12    1
    53    22    15    1
    54    45    40    1
    55    24    22    1
    56    51    47    1
    57     9    29    1
    58    34    35    1
