@<TRIPOS>MOLECULE
*****
 34 37 0 0 0
SMALL
GASTEIGER

@<TRIPOS>ATOM
      1 C          64.2178   90.3989   14.9313 C.ar    1  UNL1        0.0503
      2 C          64.6466   89.1863   14.1593 C.ar    1  UNL1        0.0143
      3 C          64.3524   87.8153   14.6921 C.ar    1  UNL1       -0.0029
      4 C          63.6294   87.6569   15.9969 C.ar    1  UNL1       -0.0208
      5 C          63.2007   88.8695   16.7687 C.ar    1  UNL1       -0.0029
      6 C          63.4949   90.2405   16.2360 C.ar    1  UNL1        0.0143
      7 O          67.0591   91.3137   14.6312 O.2     1  UNL1       -0.2727
      8 C          65.9326   92.2273   14.2484 C.2     1  UNL1        0.2493
      9 N          64.5120   91.7699   14.3985 N.am    1  UNL1       -0.2823
     10 H          63.7727   92.3695   14.1473 H       1  UNL1        0.1549
     11 C          66.2268   93.5983   13.7156 C.3     1  UNL1        0.1957
     12 N          66.5133   93.7900   12.2557 N.ar    1  UNL1       -0.2695
     13 C          66.9165   92.6184   11.4104 C.ar    1  UNL1        0.0819
     14 C          67.2030   92.8102    9.9506 C.ar    1  UNL1        0.0396
     15 C          67.0863   94.1736    9.3361 C.ar    1  UNL1        0.1052
     16 N          66.6831   95.3452   10.1815 N.ar    1  UNL1       -0.1907
     17 C          66.3966   95.1534   11.6413 C.ar    1  UNL1        0.3506
     18 O          65.9934   96.3251   12.4868 O.2     1  UNL1       -0.2444
     19 C          63.3352   86.2860   16.5297 C.3     1  UNL1        0.0420
     20 C          63.0796   85.1518   15.5817 C.3     1  UNL1        0.0585
     21 C          62.4245   83.8468   15.9247 C.3     1  UNL1        0.0175
     22 C          62.3742   83.0120   14.6794 C.3     1  UNL1        0.0199
     23 C          62.9982   83.8013   13.5668 C.3     1  UNL1        0.0855
     24 N          63.4341   85.1238   14.1245 N.3     1  UNL1       -0.2971
     25 H          62.9542   85.8802   13.6368 H       1  UNL1        0.1233
     26 C          63.1581   83.3477   12.1461 C.3     1  UNL1        0.1470
     27 O          63.6277   81.9538   11.8521 O.3     1  UNL1       -0.3787
     28 H          63.6762   81.8247   10.8920 H       1  UNL1        0.2108
     29 C          62.8486   84.2881   11.0191 C.ar    1  UNL1        0.0055
     30 C          63.5176   84.1098    9.6885 C.ar    1  UNL1       -0.0019
     31 C          63.2081   85.0500    8.5615 C.ar    1  UNL1       -0.0002
     32 C          62.2296   86.1685    8.7651 C.ar    1  UNL1       -0.0000
     33 C          61.5606   86.3467   10.0958 C.ar    1  UNL1       -0.0002
     34 C          61.8701   85.4065   11.2227 C.ar    1  UNL1       -0.0019
@<TRIPOS>BOND
     1     7     8    2
     2     8    11    1
     3    11    12    1
     4    12    13   ar
     5    13    14   ar
     6    14    15   ar
     7    15    16   ar
     8    16    17   ar
     9    17    18    2
    10     8     9   am
    11     9     1    1
    12     1     2   ar
    13     2     3   ar
    14     3     4   ar
    15     4    19    1
    16    20    19    1
    17    20    21    1
    18    21    22    1
    19    23    22    1
    20    23    26    1
    21    26    27    1
    22    26    29    1
    23    29    30   ar
    24    30    31   ar
    25    31    32   ar
    26    32    33   ar
    27    33    34   ar
    28    23    24    1
    29     4     5   ar
    30     5     6   ar
    31    17    12   ar
    32     6     1   ar
    33    24    20    1
    34    34    29   ar
    35     9    10    1
    36    27    28    1
    37    24    25    1
@<TRIPOS>MOLECULE
*****
 34 37 0 0 0
SMALL
GASTEIGER

@<TRIPOS>ATOM
      1 C          63.5426   86.9085   15.4310 C.ar    1  UNL1        0.0503
      2 C          63.0648   87.5929   16.6774 C.ar    1  UNL1        0.0143
      3 C          63.2782   89.0673   16.8523 C.ar    1  UNL1       -0.0029
      4 C          63.9694   89.8573   15.7808 C.ar    1  UNL1       -0.0208
      5 C          64.4471   89.1730   14.5344 C.ar    1  UNL1       -0.0029
      6 C          64.2337   87.6986   14.3596 C.ar    1  UNL1        0.0143
      7 O          65.8143   85.1582   14.5503 O.2     1  UNL1       -0.2727
      8 C          64.4650   84.5590   14.8158 C.2     1  UNL1        0.2493
      9 N          63.3292   85.4341   15.2561 N.am    1  UNL1       -0.2823
     10 H          62.4436   85.0408   15.4303 H       1  UNL1        0.1549
     11 C          64.2516   83.0845   14.6409 C.3     1  UNL1        0.1957
     12 N          63.9526   82.5261   13.2811 N.ar    1  UNL1       -0.2695
     13 C          64.3865   83.2698   12.0529 C.ar    1  UNL1        0.0819
     14 C          64.0875   82.7114   10.6932 C.ar    1  UNL1        0.0396
     15 C          63.3548   81.4091   10.5618 C.ar    1  UNL1        0.1052
     16 N          62.9210   80.6654   11.7900 N.ar    1  UNL1       -0.1907
     17 C          63.2199   81.2238   13.1497 C.ar    1  UNL1        0.3506
     18 O          62.7861   80.4801   14.3780 O.2     1  UNL1       -0.2444
     19 C          64.1828   91.3318   15.9557 C.3     1  UNL1        0.0420
     20 C          65.1911   92.0494   15.1080 C.3     1  UNL1        0.0585
     21 C          66.6679   92.1172   15.3621 C.3     1  UNL1        0.0175
     22 C          67.2892   92.9349   14.2687 C.3     1  UNL1        0.0199
     23 C          66.1963   93.3723   13.3389 C.3     1  UNL1        0.0855
     24 N          64.8997   92.8250   13.8577 N.3     1  UNL1       -0.2971
     25 H          64.4790   92.2114   13.1599 H       1  UNL1        0.1233
     26 C          66.3697   94.2099   12.1068 C.3     1  UNL1        0.1470
     27 O          65.8155   95.6031   12.0628 O.3     1  UNL1       -0.3787
     28 H          66.0132   96.0027   11.2014 H       1  UNL1        0.2108
     29 C          67.0973   93.6544   10.9184 C.ar    1  UNL1        0.0055
     30 C          67.5426   92.2221   10.9140 C.ar    1  UNL1       -0.0019
     31 C          68.2701   91.6665    9.7258 C.ar    1  UNL1       -0.0002
     32 C          68.5524   92.5434    8.5419 C.ar    1  UNL1       -0.0000
     33 C          68.1070   93.9757    8.5463 C.ar    1  UNL1       -0.0002
     34 C          67.3795   94.5312    9.7346 C.ar    1  UNL1       -0.0019
@<TRIPOS>BOND
     1     7     8    2
     2     8    11    1
     3    11    12    1
     4    12    13   ar
     5    13    14   ar
     6    14    15   ar
     7    15    16   ar
     8    16    17   ar
     9    17    18    2
    10     8     9   am
    11     9     1    1
    12     1     2   ar
    13     2     3   ar
    14     3     4   ar
    15     4    19    1
    16    20    19    1
    17    20    21    1
    18    21    22    1
    19    23    22    1
    20    23    26    1
    21    26    27    1
    22    26    29    1
    23    29    30   ar
    24    30    31   ar
    25    31    32   ar
    26    32    33   ar
    27    33    34   ar
    28    23    24    1
    29     4     5   ar
    30     5     6   ar
    31    17    12   ar
    32     6     1   ar
    33    24    20    1
    34    34    29   ar
    35     9    10    1
    36    27    28    1
    37    24    25    1
@<TRIPOS>MOLECULE
*****
 34 37 0 0 0
SMALL
GASTEIGER

@<TRIPOS>ATOM
      1 C          63.7070   86.2769   15.6621 C.ar    1  UNL1        0.0503
      2 C          64.4362   87.0117   14.5765 C.ar    1  UNL1        0.0143
      3 C          64.5313   88.5081   14.6168 C.ar    1  UNL1       -0.0029
      4 C          63.8970   89.2698   15.7427 C.ar    1  UNL1       -0.0208
      5 C          63.1678   88.5351   16.8282 C.ar    1  UNL1       -0.0029
      6 C          63.0728   87.0387   16.7879 C.ar    1  UNL1        0.0143
      7 O          62.1278   84.9320   13.4947 O.2     1  UNL1       -0.2727
      8 C          62.8224   84.1080   14.5381 C.2     1  UNL1        0.2493
      9 N          63.6120   84.7805   15.6218 N.am    1  UNL1       -0.2823
     10 H          64.0678   84.2397   16.3066 H       1  UNL1        0.1549
     11 C          62.7274   82.6116   14.4978 C.3     1  UNL1        0.1957
     12 N          62.8668   81.8861   13.1923 N.ar    1  UNL1       -0.2695
     13 C          63.3093   82.6276   11.9658 C.ar    1  UNL1        0.0819
     14 C          63.4487   81.9021   10.6603 C.ar    1  UNL1        0.0396
     15 C          63.1455   80.4352   10.5814 C.ar    1  UNL1        0.1052
     16 N          62.7030   79.6937   11.8079 N.ar    1  UNL1       -0.1907
     17 C          62.5636   80.4192   13.1133 C.ar    1  UNL1        0.3506
     18 O          62.1210   79.6778   14.3399 O.2     1  UNL1       -0.2444
     19 C          63.9921   90.7663   15.7830 C.3     1  UNL1        0.0420
     20 C          64.6687   91.5052   14.6666 C.3     1  UNL1        0.0585
     21 C          65.9720   92.2419   14.7596 C.3     1  UNL1        0.0175
     22 C          66.2697   92.8291   13.4117 C.3     1  UNL1        0.0199
     23 C          65.1504   92.4552   12.4858 C.3     1  UNL1        0.0855
     24 N          64.1609   91.6370   13.2613 N.3     1  UNL1       -0.2971
     25 H          64.0686   90.7133   12.8386 H       1  UNL1        0.1233
     26 C          65.0399   92.8332   11.0385 C.3     1  UNL1        0.1470
     27 O          64.0609   92.1237   10.1506 O.3     1  UNL1       -0.3787
     28 H          64.1167   92.4866    9.2528 H       1  UNL1        0.2108
     29 C          65.9084   93.9206   10.4788 C.ar    1  UNL1        0.0055
     30 C          65.5987   95.3571   10.7797 C.ar    1  UNL1       -0.0019
     31 C          66.4671   96.4446   10.2201 C.ar    1  UNL1       -0.0002
     32 C          67.6452   96.0956    9.3596 C.ar    1  UNL1       -0.0000
     33 C          67.9547   94.6592    9.0587 C.ar    1  UNL1       -0.0002
     34 C          67.0863   93.5717    9.6184 C.ar    1  UNL1       -0.0019
@<TRIPOS>BOND
     1     7     8    2
     2     8    11    1
     3    11    12    1
     4    12    13   ar
     5    13    14   ar
     6    14    15   ar
     7    15    16   ar
     8    16    17   ar
     9    17    18    2
    10     8     9   am
    11     9     1    1
    12     1     2   ar
    13     2     3   ar
    14     3     4   ar
    15     4    19    1
    16    20    19    1
    17    20    21    1
    18    21    22    1
    19    23    22    1
    20    23    26    1
    21    26    27    1
    22    26    29    1
    23    29    30   ar
    24    30    31   ar
    25    31    32   ar
    26    32    33   ar
    27    33    34   ar
    28    23    24    1
    29     4     5   ar
    30     5     6   ar
    31    17    12   ar
    32     6     1   ar
    33    24    20    1
    34    34    29   ar
    35     9    10    1
    36    27    28    1
    37    24    25    1
@<TRIPOS>MOLECULE
*****
 34 37 0 0 0
SMALL
GASTEIGER

@<TRIPOS>ATOM
      1 C          63.9452   86.5065   15.5622 C.ar    1  UNL1        0.0503
      2 C          64.5329   87.2839   14.4219 C.ar    1  UNL1        0.0143
      3 C          64.4933   88.7833   14.4370 C.ar    1  UNL1       -0.0029
      4 C          63.8659   89.5053   15.5925 C.ar    1  UNL1       -0.0208
      5 C          63.2782   88.7280   16.7328 C.ar    1  UNL1       -0.0029
      6 C          63.3178   87.2286   16.7176 C.ar    1  UNL1        0.0143
      7 O          61.4325   84.9445   15.0657 O.2     1  UNL1       -0.2727
      8 C          62.7285   84.2261   15.2988 C.2     1  UNL1        0.2493
      9 N          63.9848   85.0071   15.5471 N.am    1  UNL1       -0.2823
     10 H          64.8354   84.5356   15.7001 H       1  UNL1        0.1549
     11 C          62.7681   82.7267   15.2837 C.3     1  UNL1        0.1957
     12 N          62.8482   81.9917   13.9785 N.ar    1  UNL1       -0.2695
     13 C          62.4043   80.5614   13.8948 C.ar    1  UNL1        0.0819
     14 C          62.4844   79.8264   12.5897 C.ar    1  UNL1        0.0396
     15 C          63.0083   80.5218   11.3683 C.ar    1  UNL1        0.1052
     16 N          63.4521   81.9522   11.4520 N.ar    1  UNL1       -0.1907
     17 C          63.3721   82.6871   12.7571 C.ar    1  UNL1        0.3506
     18 O          63.8159   84.1176   12.8408 O.2     1  UNL1       -0.2444
     19 C          63.8262   91.0047   15.6076 C.3     1  UNL1        0.0420
     20 C          64.8919   91.7903   14.9024 C.3     1  UNL1        0.0585
     21 C          66.3314   91.8892   15.3125 C.3     1  UNL1        0.0175
     22 C          67.0343   92.7749   14.3268 C.3     1  UNL1        0.0199
     23 C          66.0292   93.2234   13.3076 C.3     1  UNL1        0.0855
     24 N          64.7052   92.6148   13.6633 N.3     1  UNL1       -0.2971
     25 H          64.3800   92.0226   12.8992 H       1  UNL1        0.1233
     26 C          66.3006   94.1224   12.1380 C.3     1  UNL1        0.1470
     27 O          65.8207   95.5434   12.1572 O.3     1  UNL1       -0.3787
     28 H          66.0772   95.9825   11.3312 H       1  UNL1        0.2108
     29 C          67.0519   93.6006   10.9492 C.ar    1  UNL1        0.0055
     30 C          67.3230   94.4998    9.7797 C.ar    1  UNL1       -0.0019
     31 C          68.0743   93.9781    8.5908 C.ar    1  UNL1       -0.0002
     32 C          68.5544   92.5571    8.5715 C.ar    1  UNL1       -0.0000
     33 C          68.2832   91.6579    9.7410 C.ar    1  UNL1       -0.0002
     34 C          67.5319   92.1797   10.9299 C.ar    1  UNL1       -0.0019
@<TRIPOS>BOND
     1     7     8    2
     2     8    11    1
     3    11    12    1
     4    12    13   ar
     5    13    14   ar
     6    14    15   ar
     7    15    16   ar
     8    16    17   ar
     9    17    18    2
    10     8     9   am
    11     9     1    1
    12     1     2   ar
    13     2     3   ar
    14     3     4   ar
    15     4    19    1
    16    20    19    1
    17    20    21    1
    18    21    22    1
    19    23    22    1
    20    23    26    1
    21    26    27    1
    22    26    29    1
    23    29    30   ar
    24    30    31   ar
    25    31    32   ar
    26    32    33   ar
    27    33    34   ar
    28    23    24    1
    29     4     5   ar
    30     5     6   ar
    31    17    12   ar
    32     6     1   ar
    33    24    20    1
    34    34    29   ar
    35     9    10    1
    36    27    28    1
    37    24    25    1
@<TRIPOS>MOLECULE
*****
 34 37 0 0 0
SMALL
GASTEIGER

@<TRIPOS>ATOM
      1 C          60.5717   86.7869    8.7070 C.ar    1  UNL1        0.0503
      2 C          60.2555   87.0810   10.1435 C.ar    1  UNL1        0.0143
      3 C          61.1365   86.5413   11.2310 C.ar    1  UNL1       -0.0029
      4 C          62.3337   85.7076   10.8819 C.ar    1  UNL1       -0.0208
      5 C          62.6498   85.4136    9.4454 C.ar    1  UNL1       -0.0029
      6 C          61.7688   85.9532    8.3579 C.ar    1  UNL1        0.0143
      7 O          60.0744   89.7386    8.5055 O.2     1  UNL1       -0.2727
      8 C          59.4420   88.8023    7.5188 C.2     1  UNL1        0.2493
      9 N          59.6906   87.3265    7.6195 N.am    1  UNL1       -0.2823
     10 H          59.2756   86.7121    6.9719 H       1  UNL1        0.1549
     11 C          58.5610   89.3420    6.4313 C.3     1  UNL1        0.1957
     12 N          59.0592   90.4388    5.5375 N.ar    1  UNL1       -0.2695
     13 C          60.5252   90.5597    5.2443 C.ar    1  UNL1        0.0819
     14 C          61.0234   91.6565    4.3505 C.ar    1  UNL1        0.0396
     15 C          60.0554   92.6323    3.7499 C.ar    1  UNL1        0.1052
     16 N          58.5894   92.5114    4.0430 N.ar    1  UNL1       -0.1907
     17 C          58.0912   91.4147    4.9368 C.ar    1  UNL1        0.3506
     18 O          56.6251   91.2937    5.2300 O.2     1  UNL1       -0.2444
     19 C          63.2147   85.1680   11.9694 C.3     1  UNL1        0.0420
     20 C          63.6306   86.0536   13.1064 C.3     1  UNL1        0.0585
     21 C          64.2346   85.5995   14.4022 C.3     1  UNL1        0.0175
     22 C          64.4928   86.8140   15.2439 C.3     1  UNL1        0.0199
     23 C          64.0485   88.0186   14.4682 C.3     1  UNL1        0.0855
     24 N          63.5156   87.5486   13.1472 N.3     1  UNL1       -0.2971
     25 H          64.0605   87.9585   12.3886 H       1  UNL1        0.1233
     26 C          64.1238   89.4430   14.9321 C.3     1  UNL1        0.1470
     27 O          63.5217   89.8359   16.2486 O.3     1  UNL1       -0.3787
     28 H          63.6569   90.7851   16.3956 H       1  UNL1        0.2108
     29 C          64.8013   90.4747   14.0797 C.ar    1  UNL1        0.0055
     30 C          66.1508   91.0008   14.4694 C.ar    1  UNL1       -0.0019
     31 C          66.8283   92.0325   13.6170 C.ar    1  UNL1       -0.0002
     32 C          66.1563   92.5380   12.3749 C.ar    1  UNL1       -0.0000
     33 C          64.8068   92.0119   11.9852 C.ar    1  UNL1       -0.0002
     34 C          64.1293   90.9802   12.8376 C.ar    1  UNL1       -0.0019
@<TRIPOS>BOND
     1     7     8    2
     2     8    11    1
     3    11    12    1
     4    12    13   ar
     5    13    14   ar
     6    14    15   ar
     7    15    16   ar
     8    16    17   ar
     9    17    18    2
    10     8     9   am
    11     9     1    1
    12     1     2   ar
    13     2     3   ar
    14     3     4   ar
    15     4    19    1
    16    20    19    1
    17    20    21    1
    18    21    22    1
    19    23    22    1
    20    23    26    1
    21    26    27    1
    22    26    29    1
    23    29    30   ar
    24    30    31   ar
    25    31    32   ar
    26    32    33   ar
    27    33    34   ar
    28    23    24    1
    29     4     5   ar
    30     5     6   ar
    31    17    12   ar
    32     6     1   ar
    33    24    20    1
    34    34    29   ar
    35     9    10    1
    36    27    28    1
    37    24    25    1
@<TRIPOS>MOLECULE
*****
 34 37 0 0 0
SMALL
GASTEIGER

@<TRIPOS>ATOM
      1 C          61.0826   89.6075    9.9225 C.ar    1  UNL1        0.0503
      2 C          62.1265   90.6170   10.2986 C.ar    1  UNL1        0.0143
      3 C          63.0973   90.3164   11.4018 C.ar    1  UNL1       -0.0029
      4 C          63.0243   89.0064   12.1290 C.ar    1  UNL1       -0.0208
      5 C          61.9805   87.9970   11.7528 C.ar    1  UNL1       -0.0029
      6 C          61.0096   88.2976   10.6496 C.ar    1  UNL1        0.0143
      7 O          60.4129   87.4976    7.8976 O.2     1  UNL1       -0.2727
      8 C          59.7769   88.8532    7.8068 C.2     1  UNL1        0.2493
      9 N          60.1118   89.9080    8.8192 N.am    1  UNL1       -0.2823
     10 H          59.6943   90.7977    8.7596 H       1  UNL1        0.1549
     11 C          58.8061   89.1537    6.7036 C.3     1  UNL1        0.1957
     12 N          59.0798   90.2782    5.7493 N.ar    1  UNL1       -0.2695
     13 C          60.4901   90.5954    5.3487 C.ar    1  UNL1        0.0819
     14 C          60.7638   91.7199    4.3945 C.ar    1  UNL1        0.0396
     15 C          59.6272   92.5272    3.8408 C.ar    1  UNL1        0.1052
     16 N          58.2169   92.2100    4.2414 N.ar    1  UNL1       -0.1907
     17 C          57.9432   91.0855    5.1956 C.ar    1  UNL1        0.3506
     18 O          56.5329   90.7682    5.5963 O.2     1  UNL1       -0.2444
     19 C          63.9951   88.7059   13.2322 C.3     1  UNL1        0.0420
     20 C          63.8972   87.4125   13.9858 C.3     1  UNL1        0.0585
     21 C          64.1727   87.2210   15.4478 C.3     1  UNL1        0.0175
     22 C          63.9524   85.7738   15.7752 C.3     1  UNL1        0.0199
     23 C          63.5407   85.0710   14.5156 C.3     1  UNL1        0.0855
     24 N          63.5066   86.0838   13.4096 N.3     1  UNL1       -0.2971
     25 H          62.5658   86.1388   13.0195 H       1  UNL1        0.1233
     26 C          63.2196   83.6117   14.3848 C.3     1  UNL1        0.1470
     27 O          62.7703   82.8322   15.5850 O.3     1  UNL1       -0.3787
     28 H          62.6055   81.9111   15.3292 H       1  UNL1        0.2108
     29 C          63.3476   82.9318   13.0539 C.ar    1  UNL1        0.0055
     30 C          64.1884   83.5476   11.9750 C.ar    1  UNL1       -0.0019
     31 C          64.3164   82.8677   10.6441 C.ar    1  UNL1       -0.0002
     32 C          63.6037   81.5721   10.3920 C.ar    1  UNL1       -0.0000
     33 C          62.7630   80.9565   11.4709 C.ar    1  UNL1       -0.0002
     34 C          62.6349   81.6363   12.8018 C.ar    1  UNL1       -0.0019
@<TRIPOS>BOND
     1     7     8    2
     2     8    11    1
     3    11    12    1
     4    12    13   ar
     5    13    14   ar
     6    14    15   ar
     7    15    16   ar
     8    16    17   ar
     9    17    18    2
    10     8     9   am
    11     9     1    1
    12     1     2   ar
    13     2     3   ar
    14     3     4   ar
    15     4    19    1
    16    20    19    1
    17    20    21    1
    18    21    22    1
    19    23    22    1
    20    23    26    1
    21    26    27    1
    22    26    29    1
    23    29    30   ar
    24    30    31   ar
    25    31    32   ar
    26    32    33   ar
    27    33    34   ar
    28    23    24    1
    29     4     5   ar
    30     5     6   ar
    31    17    12   ar
    32     6     1   ar
    33    24    20    1
    34    34    29   ar
    35     9    10    1
    36    27    28    1
    37    24    25    1
@<TRIPOS>MOLECULE
*****
 34 37 0 0 0
SMALL
GASTEIGER

@<TRIPOS>ATOM
      1 C          63.8198   86.7797   13.4790 C.ar    1  UNL1        0.0503
      2 C          64.2196   86.8981   14.9199 C.ar    1  UNL1        0.0143
      3 C          64.3273   88.2506   15.5596 C.ar    1  UNL1       -0.0029
      4 C          64.0352   89.4846   14.7584 C.ar    1  UNL1       -0.0208
      5 C          63.6354   89.3661   13.3176 C.ar    1  UNL1       -0.0029
      6 C          63.5277   88.0137   12.6779 C.ar    1  UNL1        0.0143
      7 O          61.4963   86.1473   11.6898 O.2     1  UNL1       -0.2727
      8 C          62.5504   85.1110   11.9447 C.2     1  UNL1        0.2493
      9 N          63.7121   85.4272   12.8393 N.am    1  UNL1       -0.2823
     10 H          64.4040   84.7470   13.0066 H       1  UNL1        0.1549
     11 C          62.4427   83.7585   11.3050 C.3     1  UNL1        0.1957
     12 N          62.4072   82.5257   12.1588 N.ar    1  UNL1       -0.2695
     13 C          61.9763   82.6185   13.5925 C.ar    1  UNL1        0.0819
     14 C          61.9408   81.3857   14.4462 C.ar    1  UNL1        0.0396
     15 C          62.3363   80.0601   13.8662 C.ar    1  UNL1        0.1052
     16 N          62.7672   79.9673   12.4325 N.ar    1  UNL1       -0.1907
     17 C          62.8027   81.2001   11.5788 C.ar    1  UNL1        0.3506
     18 O          63.2336   81.1074   10.1450 O.2     1  UNL1       -0.2444
     19 C          64.1429   90.8371   15.3981 C.3     1  UNL1        0.0420
     20 C          65.0604   91.8712   14.8160 C.3     1  UNL1        0.0585
     21 C          66.2595   92.4667   15.4923 C.3     1  UNL1        0.0175
     22 C          66.8802   93.4549   14.5497 C.3     1  UNL1        0.0199
     23 C          66.0645   93.4700   13.2909 C.3     1  UNL1        0.0855
     24 N          64.9399   92.4912   13.4555 N.3     1  UNL1       -0.2971
     25 H          65.0026   91.7681   12.7388 H       1  UNL1        0.1233
     26 C          66.3274   94.3154   12.0801 C.3     1  UNL1        0.1470
     27 O          65.8563   95.7390   12.0427 O.3     1  UNL1       -0.3787
     28 H          66.1057   96.1399   11.1954 H       1  UNL1        0.2108
     29 C          67.0615   93.7373   10.9066 C.ar    1  UNL1        0.0055
     30 C          67.2982   94.5737    9.6842 C.ar    1  UNL1       -0.0019
     31 C          68.0322   93.9957    8.5106 C.ar    1  UNL1       -0.0002
     32 C          68.5294   92.5814    8.5596 C.ar    1  UNL1       -0.0000
     33 C          68.2927   91.7451    9.7820 C.ar    1  UNL1       -0.0002
     34 C          67.5587   92.3231   10.9555 C.ar    1  UNL1       -0.0019
@<TRIPOS>BOND
     1     7     8    2
     2     8    11    1
     3    11    12    1
     4    12    13   ar
     5    13    14   ar
     6    14    15   ar
     7    15    16   ar
     8    16    17   ar
     9    17    18    2
    10     8     9   am
    11     9     1    1
    12     1     2   ar
    13     2     3   ar
    14     3     4   ar
    15     4    19    1
    16    20    19    1
    17    20    21    1
    18    21    22    1
    19    23    22    1
    20    23    26    1
    21    26    27    1
    22    26    29    1
    23    29    30   ar
    24    30    31   ar
    25    31    32   ar
    26    32    33   ar
    27    33    34   ar
    28    23    24    1
    29     4     5   ar
    30     5     6   ar
    31    17    12   ar
    32     6     1   ar
    33    24    20    1
    34    34    29   ar
    35     9    10    1
    36    27    28    1
    37    24    25    1
@<TRIPOS>MOLECULE
*****
 34 37 0 0 0
SMALL
GASTEIGER

@<TRIPOS>ATOM
      1 C          61.4949   86.7019    9.0118 C.ar    1  UNL1        0.0503
      2 C          61.4934   88.1696    9.3213 C.ar    1  UNL1        0.0143
      3 C          60.4903   89.0730    8.6672 C.ar    1  UNL1       -0.0029
      4 C          59.4887   88.5086    7.7037 C.ar    1  UNL1       -0.0208
      5 C          59.4902   87.0409    7.3942 C.ar    1  UNL1       -0.0029
      6 C          60.4933   86.1375    8.0483 C.ar    1  UNL1        0.0143
      7 O          61.2858   86.1018   11.9437 O.2     1  UNL1       -0.2727
      8 C          62.3934   85.4985   11.1317 C.2     1  UNL1        0.2493
      9 N          62.4979   85.7985    9.6658 N.am    1  UNL1       -0.2823
     10 H          63.2249   85.4025    9.1329 H       1  UNL1        0.1549
     11 C          63.3965   84.5951   11.7858 C.3     1  UNL1        0.1957
     12 N          62.9401   83.3481   12.4836 N.ar    1  UNL1       -0.2695
     13 C          62.9676   82.0328   11.7632 C.ar    1  UNL1        0.0819
     14 C          62.5112   80.7859   12.4610 C.ar    1  UNL1        0.0396
     15 C          62.0273   80.8544   13.8792 C.ar    1  UNL1        0.1052
     16 N          61.9997   82.1698   14.5995 N.ar    1  UNL1       -0.1907
     17 C          62.4562   83.4167   13.9017 C.ar    1  UNL1        0.3506
     18 O          62.4287   84.7322   14.6220 O.2     1  UNL1       -0.2444
     19 C          58.4856   89.4119    7.0496 C.3     1  UNL1        0.0420
     20 C          58.9148   90.3379    5.9503 C.3     1  UNL1        0.0585
     21 C          58.0314   91.3003    5.2132 C.3     1  UNL1        0.0175
     22 C          58.8733   92.0213    4.2024 C.3     1  UNL1        0.0199
     23 C          60.2769   91.5043    4.3149 C.3     1  UNL1        0.0855
     24 N          60.3026   90.4640    5.3952 N.3     1  UNL1       -0.2971
     25 H          60.9463   90.7477    6.1338 H       1  UNL1        0.1233
     26 C          61.4491   91.9496    3.4918 C.3     1  UNL1        0.1470
     27 O          62.8369   91.5265    3.8725 O.3     1  UNL1       -0.3787
     28 H          63.4728   91.8977    3.2410 H       1  UNL1        0.2108
     29 C          61.2336   92.8179    2.2878 C.ar    1  UNL1        0.0055
     30 C          60.6069   94.1720    2.4422 C.ar    1  UNL1       -0.0019
     31 C          60.3914   95.0403    1.2383 C.ar    1  UNL1       -0.0002
     32 C          60.8025   94.5547   -0.1200 C.ar    1  UNL1       -0.0000
     33 C          61.4291   93.2007   -0.2744 C.ar    1  UNL1       -0.0002
     34 C          61.6447   92.3323    0.9295 C.ar    1  UNL1       -0.0019
@<TRIPOS>BOND
     1     7     8    2
     2     8    11    1
     3    11    12    1
     4    12    13   ar
     5    13    14   ar
     6    14    15   ar
     7    15    16   ar
     8    16    17   ar
     9    17    18    2
    10     8     9   am
    11     9     1    1
    12     1     2   ar
    13     2     3   ar
    14     3     4   ar
    15     4    19    1
    16    20    19    1
    17    20    21    1
    18    21    22    1
    19    23    22    1
    20    23    26    1
    21    26    27    1
    22    26    29    1
    23    29    30   ar
    24    30    31   ar
    25    31    32   ar
    26    32    33   ar
    27    33    34   ar
    28    23    24    1
    29     4     5   ar
    30     5     6   ar
    31    17    12   ar
    32     6     1   ar
    33    24    20    1
    34    34    29   ar
    35     9    10    1
    36    27    28    1
    37    24    25    1
@<TRIPOS>MOLECULE
*****
 34 37 0 0 0
SMALL
GASTEIGER

@<TRIPOS>ATOM
      1 C          61.6380   88.2815   10.4281 C.ar    1  UNL1        0.0503
      2 C          61.3395   87.1594    9.4784 C.ar    1  UNL1        0.0143
      3 C          60.4509   87.3962    8.2934 C.ar    1  UNL1       -0.0029
      4 C          59.8607   88.7551    8.0581 C.ar    1  UNL1       -0.0208
      5 C          60.1592   89.8770    9.0079 C.ar    1  UNL1       -0.0029
      6 C          61.0478   89.6402   10.1929 C.ar    1  UNL1        0.0143
      7 O          62.7334   90.6097   11.9706 O.2     1  UNL1       -0.2727
      8 C          63.0744   89.2088   12.3844 C.2     1  UNL1        0.2493
      9 N          62.5267   88.0447   11.6131 N.am    1  UNL1       -0.2823
     10 H          62.7505   87.1252   11.8847 H       1  UNL1        0.1549
     11 C          63.9631   88.9720   13.5694 C.3     1  UNL1        0.1957
     12 N          64.3250   90.1117   14.4750 N.ar    1  UNL1       -0.2695
     13 C          65.5402   90.9423   14.1863 C.ar    1  UNL1        0.0819
     14 C          65.9021   92.0820   15.0919 C.ar    1  UNL1        0.0396
     15 C          65.0489   92.3909   16.2863 C.ar    1  UNL1        0.1052
     16 N          63.8337   91.5603   16.5750 N.ar    1  UNL1       -0.1907
     17 C          63.4718   90.4207   15.6694 C.ar    1  UNL1        0.3506
     18 O          62.2566   89.5899   15.9581 O.2     1  UNL1       -0.2444
     19 C          58.9720   88.9918    6.8732 C.3     1  UNL1        0.0420
     20 C          59.2797   90.1046    5.9154 C.3     1  UNL1        0.0585
     21 C          58.3552   91.2241    5.5384 C.3     1  UNL1        0.0175
     22 C          59.0700   92.1046    4.5565 C.3     1  UNL1        0.0199
     23 C          60.4361   91.5293    4.3268 C.3     1  UNL1        0.0855
     24 N          60.5657   90.2932    5.1667 N.3     1  UNL1       -0.2971
     25 H          61.3370   90.4015    5.8253 H       1  UNL1        0.1233
     26 C          61.4879   92.0913    3.4171 C.3     1  UNL1        0.1470
     27 O          62.9397   91.8673    3.7207 O.3     1  UNL1       -0.3787
     28 H          63.4821   92.2936    3.0387 H       1  UNL1        0.2108
     29 C          61.0881   92.8772    2.2037 C.ar    1  UNL1        0.0055
     30 C          61.2218   92.2694    0.8389 C.ar    1  UNL1       -0.0019
     31 C          60.8220   93.0553   -0.3746 C.ar    1  UNL1       -0.0002
     32 C          60.2885   94.4490   -0.2232 C.ar    1  UNL1       -0.0000
     33 C          60.1548   95.0568    1.1415 C.ar    1  UNL1       -0.0002
     34 C          60.5546   94.2709    2.3550 C.ar    1  UNL1       -0.0019
@<TRIPOS>BOND
     1     7     8    2
     2     8    11    1
     3    11    12    1
     4    12    13   ar
     5    13    14   ar
     6    14    15   ar
     7    15    16   ar
     8    16    17   ar
     9    17    18    2
    10     8     9   am
    11     9     1    1
    12     1     2   ar
    13     2     3   ar
    14     3     4   ar
    15     4    19    1
    16    20    19    1
    17    20    21    1
    18    21    22    1
    19    23    22    1
    20    23    26    1
    21    26    27    1
    22    26    29    1
    23    29    30   ar
    24    30    31   ar
    25    31    32   ar
    26    32    33   ar
    27    33    34   ar
    28    23    24    1
    29     4     5   ar
    30     5     6   ar
    31    17    12   ar
    32     6     1   ar
    33    24    20    1
    34    34    29   ar
    35     9    10    1
    36    27    28    1
    37    24    25    1
