@<TRIPOS>MOLECULE
*****
 24 26 0 0 0
SMALL
GASTEIGER

@<TRIPOS>ATOM
      1 C          63.9473   90.5105   13.0757 C.2     1  UNL1        0.2667
      2 O          64.0265   90.2478   14.5504 O.2     1  UNL1       -0.2683
      3 N          64.6782   91.6779   12.4816 N.am    1  UNL1       -0.2748
      4 C          64.5990   91.9406   11.0068 C.3     1  UNL1        0.0938
      5 C          65.3298   93.1080   10.4127 C.3     1  UNL1        0.0216
      6 C          66.1399   94.0127   11.2933 C.3     1  UNL1        0.0057
      7 C          66.2190   93.7500   12.7679 C.3     1  UNL1        0.0216
      8 C          65.4882   92.5826   13.3621 C.3     1  UNL1        0.0938
      9 C          59.1492   87.0591    7.9095 C.3     1  UNL1        0.0267
     10 C          60.1693   87.2446    8.9935 C.2     1  UNL1       -0.0394
     11 C          60.8064   86.0485    9.6364 C.2     1  UNL1       -0.0066
     12 C          61.8264   86.2339   10.7204 C.2     1  UNL1        0.0182
     13 C          62.2094   87.6154   11.1616 C.2     1  UNL1        0.0778
     14 N          63.1766   88.1063   12.1977 N.2     1  UNL1       -0.2411
     15 C          63.1373   89.6058   12.1951 C.2     1  UNL1        0.1344
     16 C          62.1457   90.0417   11.1575 C.2     1  UNL1        0.0213
     17 C          61.5722   88.8115   10.5187 C.2     1  UNL1        0.0012
     18 C          60.5522   88.6261    9.4346 C.3     1  UNL1        0.0499
     19 C          66.8707   95.1801   10.6991 C.3     1  UNL1        0.0270
     20 C          66.4380   95.7419    9.3772 C.3     1  UNL1        0.0885
     21 C          67.5461   94.9940    8.6967 C.3     1  UNL1        0.0293
     22 C          65.3301   96.4897   10.0577 C.3     1  UNL1        0.0293
     23 O          66.0054   96.3037    8.0554 O.3     1  UNL1       -0.3867
     24 H          66.5876   95.9688    7.3556 H       1  UNL1        0.2102
@<TRIPOS>BOND
     1     9    10    1
     2    10    11    2
     3    11    12    1
     4    12    13    2
     5    13    14    1
     6    14    15    2
     7    15     1    1
     8     1     2    2
     9     1     3   am
    10     3     4    1
    11     4     5    1
    12     5     6    1
    13     6    19    1
    14    19    20    1
    15    20    21    1
    16    20    22    1
    17    20    23    1
    18     6     7    1
    19     7     8    1
    20    15    16    1
    21    16    17    2
    22    17    18    1
    23    18    10    1
    24    17    13    1
    25     8     3    1
    26    23    24    1
@<TRIPOS>MOLECULE
*****
 24 26 0 0 0
SMALL
GASTEIGER

@<TRIPOS>ATOM
      1 C          62.6650   90.0092   11.9149 C.2     1  UNL1        0.2667
      2 O          61.7817   90.8386   11.0308 O.2     1  UNL1       -0.2683
      3 N          62.6057   88.5122   11.8422 N.am    1  UNL1       -0.2748
      4 C          63.4891   87.6828   12.7264 C.3     1  UNL1        0.0938
      5 C          63.4298   86.1857   12.6537 C.3     1  UNL1        0.0216
      6 C          62.4871   85.5180   11.6968 C.3     1  UNL1        0.0057
      7 C          61.6038   86.3474   10.8127 C.3     1  UNL1        0.0216
      8 C          61.6631   87.8445   10.8854 C.3     1  UNL1        0.0938
      9 C          68.4517   93.7250   15.7006 C.3     1  UNL1        0.0267
     10 C          67.1632   93.0037   15.4368 C.2     1  UNL1       -0.0394
     11 C          66.2190   92.7175   16.5666 C.2     1  UNL1       -0.0066
     12 C          64.9306   91.9962   16.3029 C.2     1  UNL1        0.0182
     13 C          64.5863   91.5611   14.9093 C.2     1  UNL1        0.0778
     14 N          63.3980   90.8377   14.3483 N.2     1  UNL1       -0.2411
     15 C          63.6078   90.6769   12.8718 C.2     1  UNL1        0.1344
     16 C          64.9257   91.3009   12.5202 C.2     1  UNL1        0.0213
     17 C          65.5304   91.8474   13.7795 C.2     1  UNL1        0.0012
     18 C          66.8189   92.5687   14.0432 C.3     1  UNL1        0.0499
     19 C          62.4278   84.0210   11.6241 C.3     1  UNL1        0.0270
     20 C          63.6959   83.2226   11.5550 C.3     1  UNL1        0.0885
     21 C          63.8489   83.5908   10.1090 C.3     1  UNL1        0.0293
     22 C          63.5428   82.8545   13.0011 C.3     1  UNL1        0.0293
     23 O          64.9638   82.4243   11.4860 O.3     1  UNL1       -0.3867
     24 H          65.3305   82.4767   10.5895 H       1  UNL1        0.2102
@<TRIPOS>BOND
     1     9    10    1
     2    10    11    2
     3    11    12    1
     4    12    13    2
     5    13    14    1
     6    14    15    2
     7    15     1    1
     8     1     2    2
     9     1     3   am
    10     3     4    1
    11     4     5    1
    12     5     6    1
    13     6    19    1
    14    19    20    1
    15    20    21    1
    16    20    22    1
    17    20    23    1
    18     6     7    1
    19     7     8    1
    20    15    16    1
    21    16    17    2
    22    17    18    1
    23    18    10    1
    24    17    13    1
    25     8     3    1
    26    23    24    1
@<TRIPOS>MOLECULE
*****
 24 26 0 0 0
SMALL
GASTEIGER

@<TRIPOS>ATOM
      1 C          62.5216   87.5459   11.3197 C.2     1  UNL1        0.2667
      2 O          61.8156   87.8540   10.0327 O.2     1  UNL1       -0.2683
      3 N          63.1978   88.6440   12.0857 N.am    1  UNL1       -0.2748
      4 C          63.9039   88.3359   13.3728 C.3     1  UNL1        0.0938
      5 C          64.5800   89.4340   14.1389 C.3     1  UNL1        0.0216
      6 C          64.5501   90.8404   13.6179 C.3     1  UNL1        0.0057
      7 C          63.8440   91.1485   12.3309 C.3     1  UNL1        0.0216
      8 C          63.1678   90.0503   11.5648 C.3     1  UNL1        0.0938
      9 C          62.6628   79.8005   12.5898 C.3     1  UNL1        0.0267
     10 C          62.6433   81.2790   12.8418 C.2     1  UNL1       -0.0394
     11 C          62.6561   81.8004   14.2481 C.2     1  UNL1       -0.0066
     12 C          62.6366   83.2790   14.5001 C.2     1  UNL1        0.0182
     13 C          62.6042   84.2362   13.3457 C.2     1  UNL1        0.0778
     14 N          62.5796   85.7347   13.2848 N.2     1  UNL1       -0.2411
     15 C          62.5516   86.1395   11.8407 C.2     1  UNL1        0.1344
     16 C          62.5589   84.8912   11.0091 C.2     1  UNL1        0.0213
     17 C          62.5913   83.7148   11.9394 C.2     1  UNL1        0.0012
     18 C          62.6109   82.2362   11.6874 C.3     1  UNL1        0.0499
     19 C          65.2262   91.9385   14.3839 C.3     1  UNL1        0.0270
     20 C          66.6111   92.3738   14.0062 C.3     1  UNL1        0.0885
     21 C          67.1797   91.5031   15.0873 C.3     1  UNL1        0.0293
     22 C          66.0425   93.2444   12.9251 C.3     1  UNL1        0.0293
     23 O          67.9959   92.8091   13.6284 O.3     1  UNL1       -0.3867
     24 H          68.6411   92.3721   14.2061 H       1  UNL1        0.2102
@<TRIPOS>BOND
     1     9    10    1
     2    10    11    2
     3    11    12    1
     4    12    13    2
     5    13    14    1
     6    14    15    2
     7    15     1    1
     8     1     2    2
     9     1     3   am
    10     3     4    1
    11     4     5    1
    12     5     6    1
    13     6    19    1
    14    19    20    1
    15    20    21    1
    16    20    22    1
    17    20    23    1
    18     6     7    1
    19     7     8    1
    20    15    16    1
    21    16    17    2
    22    17    18    1
    23    18    10    1
    24    17    13    1
    25     8     3    1
    26    23    24    1
@<TRIPOS>MOLECULE
*****
 24 26 0 0 0
SMALL
GASTEIGER

@<TRIPOS>ATOM
      1 C          62.5893   88.6468   11.7297 C.2     1  UNL1        0.2667
      2 O          61.5037   89.0480   10.7756 O.2     1  UNL1       -0.2683
      3 N          62.7753   87.2026   12.0899 N.am    1  UNL1       -0.2748
      4 C          63.8610   86.8014   13.0441 C.3     1  UNL1        0.0938
      5 C          64.0470   85.3573   13.4043 C.3     1  UNL1        0.0216
      6 C          63.1474   84.3142   12.8102 C.3     1  UNL1        0.0057
      7 C          62.0619   84.7154   11.8560 C.3     1  UNL1        0.0216
      8 C          61.8758   86.1596   11.4958 C.3     1  UNL1        0.0938
      9 C          67.2991   93.2066   16.0483 C.3     1  UNL1        0.0267
     10 C          66.4756   92.7024   14.9004 C.2     1  UNL1       -0.0394
     11 C          66.3868   93.5005   13.6335 C.2     1  UNL1       -0.0066
     12 C          65.5634   92.9963   12.4856 C.2     1  UNL1        0.0182
     13 C          64.8287   91.6940   12.6045 C.2     1  UNL1        0.0778
     14 N          63.9458   90.9486   11.6481 N.2     1  UNL1       -0.2411
     15 C          63.4889   89.6898   12.3238 C.2     1  UNL1        0.1344
     16 C          64.0894   89.6572   13.6979 C.2     1  UNL1        0.0213
     17 C          64.9176   90.8958   13.8714 C.2     1  UNL1        0.0012
     18 C          65.7410   91.4000   15.0193 C.3     1  UNL1        0.0499
     19 C          63.3335   82.8700   13.1703 C.3     1  UNL1        0.0270
     20 C          62.2470   82.1316   13.8944 C.3     1  UNL1        0.0885
     21 C          62.3296   83.1165   15.0228 C.3     1  UNL1        0.0293
     22 C          62.1643   81.1468   12.7660 C.3     1  UNL1        0.0293
     23 O          61.1605   81.3932   14.6184 O.3     1  UNL1       -0.3867
     24 H          60.9767   81.8345   15.4625 H       1  UNL1        0.2102
@<TRIPOS>BOND
     1     9    10    1
     2    10    11    2
     3    11    12    1
     4    12    13    2
     5    13    14    1
     6    14    15    2
     7    15     1    1
     8     1     2    2
     9     1     3   am
    10     3     4    1
    11     4     5    1
    12     5     6    1
    13     6    19    1
    14    19    20    1
    15    20    21    1
    16    20    22    1
    17    20    23    1
    18     6     7    1
    19     7     8    1
    20    15    16    1
    21    16    17    2
    22    17    18    1
    23    18    10    1
    24    17    13    1
    25     8     3    1
    26    23    24    1
@<TRIPOS>MOLECULE
*****
 24 26 0 0 0
SMALL
GASTEIGER

@<TRIPOS>ATOM
      1 C          62.4678   87.1499   11.3805 C.2     1  UNL1        0.2667
      2 O          61.6578   87.7322   10.2603 O.2     1  UNL1       -0.2683
      3 N          63.1768   88.0558   12.3431 N.am    1  UNL1       -0.2748
      4 C          63.9868   87.4735   13.4633 C.3     1  UNL1        0.0938
      5 C          64.6957   88.3794   14.4259 C.3     1  UNL1        0.0216
      6 C          64.5947   89.8677   14.2683 C.3     1  UNL1        0.0057
      7 C          63.7848   90.4500   13.1481 C.3     1  UNL1        0.0216
      8 C          63.0758   89.5441   12.1855 C.3     1  UNL1        0.0938
      9 C          62.4678   79.6180   13.5928 C.3     1  UNL1        0.0267
     10 C          62.6398   80.8502   12.7549 C.2     1  UNL1       -0.0394
     11 C          63.1587   80.7369   11.3522 C.2     1  UNL1       -0.0066
     12 C          63.3307   81.9692   10.5143 C.2     1  UNL1        0.0182
     13 C          62.9837   83.3147   11.0792 C.2     1  UNL1        0.0778
     14 N          63.0480   84.6951   10.4959 N.2     1  UNL1       -0.2411
     15 C          62.5688   85.6616   11.5381 C.2     1  UNL1        0.1344
     16 C          62.2083   84.8785   12.7656 C.2     1  UNL1        0.0213
     17 C          62.4648   83.4280   12.4820 C.2     1  UNL1        0.0012
     18 C          62.2928   82.1958   13.3198 C.3     1  UNL1        0.0499
     19 C          65.3037   90.7737   15.2309 C.3     1  UNL1        0.0270
     20 C          64.5204   91.7500   16.0576 C.3     1  UNL1        0.0885
     21 C          63.5133   90.6817   16.3651 C.3     1  UNL1        0.0293
     22 C          65.5276   92.8182   15.7502 C.3     1  UNL1        0.0293
     23 O          63.7373   92.7264   16.8843 O.3     1  UNL1       -0.3867
     24 H          62.9544   92.2855   17.2499 H       1  UNL1        0.2102
@<TRIPOS>BOND
     1     9    10    1
     2    10    11    2
     3    11    12    1
     4    12    13    2
     5    13    14    1
     6    14    15    2
     7    15     1    1
     8     1     2    2
     9     1     3   am
    10     3     4    1
    11     4     5    1
    12     5     6    1
    13     6    19    1
    14    19    20    1
    15    20    21    1
    16    20    22    1
    17    20    23    1
    18     6     7    1
    19     7     8    1
    20    15    16    1
    21    16    17    2
    22    17    18    1
    23    18    10    1
    24    17    13    1
    25     8     3    1
    26    23    24    1
@<TRIPOS>MOLECULE
*****
 24 26 0 0 0
SMALL
GASTEIGER

@<TRIPOS>ATOM
      1 C          62.1261   87.5569   10.8905 C.2     1  UNL1        0.2667
      2 O          62.7088   88.5728   11.8278 O.2     1  UNL1       -0.2683
      3 N          61.2679   88.0005    9.7430 N.am    1  UNL1       -0.2748
      4 C          60.6853   86.9845    8.8057 C.3     1  UNL1        0.0938
      5 C          59.8271   87.4280    7.6582 C.3     1  UNL1        0.0216
      6 C          59.5515   88.8875    7.4480 C.3     1  UNL1        0.0057
      7 C          60.1342   89.9033    8.3853 C.3     1  UNL1        0.0216
      8 C          60.9924   89.4598    9.5328 C.3     1  UNL1        0.0938
      9 C          62.9261   80.1404   13.3357 C.3     1  UNL1        0.0267
     10 C          62.9953   81.3641   12.4709 C.2     1  UNL1       -0.0394
     11 C          63.6108   81.2837   11.1055 C.2     1  UNL1       -0.0066
     12 C          63.6799   82.5074   10.2407 C.2     1  UNL1        0.0182
     13 C          63.1335   83.8114   10.7414 C.2     1  UNL1        0.0778
     14 N          63.0617   85.1746   10.1196 N.2     1  UNL1       -0.2411
     15 C          62.4017   86.0975   11.1008 C.2     1  UNL1        0.1344
     16 C          62.0657   85.3047   12.3290 C.2     1  UNL1        0.0213
     17 C          62.5180   83.8918   12.1069 C.2     1  UNL1        0.0012
     18 C          62.4489   82.6682   12.9716 C.3     1  UNL1        0.0499
     19 C          58.6934   89.3310    6.3005 C.3     1  UNL1        0.0270
     20 C          58.9731   90.6357    5.6151 C.3     1  UNL1        0.0885
     21 C          57.5026   90.9290    5.5733 C.3     1  UNL1        0.0293
     22 C          60.4435   90.3423    5.6570 C.3     1  UNL1        0.0293
     23 O          59.2529   91.9403    4.9298 O.3     1  UNL1       -0.3867
     24 H          58.4167   92.4004    4.7566 H       1  UNL1        0.2102
@<TRIPOS>BOND
     1     9    10    1
     2    10    11    2
     3    11    12    1
     4    12    13    2
     5    13    14    1
     6    14    15    2
     7    15     1    1
     8     1     2    2
     9     1     3   am
    10     3     4    1
    11     4     5    1
    12     5     6    1
    13     6    19    1
    14    19    20    1
    15    20    21    1
    16    20    22    1
    17    20    23    1
    18     6     7    1
    19     7     8    1
    20    15    16    1
    21    16    17    2
    22    17    18    1
    23    18    10    1
    24    17    13    1
    25     8     3    1
    26    23    24    1
