@<TRIPOS>MOLECULE
*****
 32 36 0 0 0
SMALL
GASTEIGER

@<TRIPOS>ATOM
      1 C          63.1999   82.8679   12.8321 C.ar    1  UNL1        0.0942
      2 C          62.7445   83.9954   11.9538 C.ar    1  UNL1        0.0358
      3 C          63.0342   85.4144   12.3444 C.ar    1  UNL1        0.0658
      4 C          63.7793   85.7058   13.6133 C.ar    1  UNL1        0.0654
      5 C          64.2345   84.5783   14.4915 C.ar    1  UNL1        0.0470
      6 C          63.9448   83.1593   14.1010 C.ar    1  UNL1        0.1574
      7 F          64.4002   82.0319   14.9793 F       1  UNL1       -0.2026
      8 N          64.1690   87.0371   14.1842 N.pl3   1  UNL1       -0.2968
      9 C          63.9100   88.4056   13.6274 C.ar    1  UNL1        0.1361
     10 N          64.4717   89.4746   14.5171 N.ar    1  UNL1       -0.2344
     11 C          64.3207   90.9189   14.1415 C.ar    1  UNL1        0.0648
     12 C          63.6079   91.2942   12.8762 C.ar    1  UNL1        0.0153
     13 C          63.0462   90.2252   11.9864 C.ar    1  UNL1        0.0086
     14 C          63.1973   88.7809   12.3620 C.ar    1  UNL1        0.0853
     15 C          62.5675   87.8804   11.3410 C.2     1  UNL1        0.2522
     16 O          61.9254   88.5692   10.1734 O.2     1  UNL1       -0.2697
     17 N          62.4949   86.3822   11.3331 N.am    1  UNL1       -0.2793
     18 H          64.6597   87.0089   15.0373 H       1  UNL1        0.1536
     19 H          62.0322   85.9809   10.5623 H       1  UNL1        0.1552
     20 C          62.7261   78.4348   10.0029 C.3     1  UNL1        0.0538
     21 C          62.6924   79.4112   11.1411 C.ar    1  UNL1        0.0786
     22 C          63.1089   80.8510   11.0803 C.ar    1  UNL1        0.0963
     23 N          62.9102   81.4489   12.4416 N.ar    1  UNL1       -0.2845
     24 C          62.3708   80.3787   13.3437 C.ar    1  UNL1        0.1826
     25 N          62.2363   79.1193   12.5399 N.ar    1  UNL1       -0.2280
     26 C          64.8824   91.9880   15.0313 C.3     1  UNL1        0.0721
     27 C          66.3581   92.2567   15.0412 C.ar    1  UNL1       -0.0162
     28 C          67.2051   91.8346   13.8774 C.ar    1  UNL1       -0.0039
     29 C          68.6808   92.1033   13.8873 C.ar    1  UNL1       -0.0003
     30 C          69.3095   92.7941   15.0610 C.ar    1  UNL1       -0.0000
     31 C          68.4625   93.2162   16.2248 C.ar    1  UNL1       -0.0003
     32 C          66.9868   92.9475   16.2149 C.ar    1  UNL1       -0.0039
@<TRIPOS>BOND
     1    20    21    1
     2    21    22   ar
     3    22    23   ar
     4    23     1    1
     5     1     2   ar
     6     2     3   ar
     7     3     4   ar
     8     4     5   ar
     9     5     6   ar
    10     6     7    1
    11     4     8    1
    12     8     9    1
    13     9    10   ar
    14    10    11   ar
    15    11    26    1
    16    26    27    1
    17    27    28   ar
    18    28    29   ar
    19    29    30   ar
    20    30    31   ar
    21    31    32   ar
    22    11    12   ar
    23    12    13   ar
    24    13    14   ar
    25    14    15    1
    26    15    16    2
    27    15    17   am
    28    23    24   ar
    29    24    25   ar
    30    25    21   ar
    31     6     1   ar
    32    14     9   ar
    33    17     3    1
    34    32    27   ar
    35     8    18    1
    36    17    19    1
@<TRIPOS>MOLECULE
*****
 32 36 0 0 0
SMALL
GASTEIGER

@<TRIPOS>ATOM
      1 C          59.9246   89.1466    7.6751 C.ar    1  UNL1        0.0942
      2 C          60.7846   89.8011    8.7154 C.ar    1  UNL1        0.0358
      3 C          61.4100   88.9746    9.7997 C.ar    1  UNL1        0.0658
      4 C          61.1753   87.4937    9.8438 C.ar    1  UNL1        0.0654
      5 C          60.3153   86.8394    8.8036 C.ar    1  UNL1        0.0470
      6 C          59.6899   87.6658    7.7192 C.ar    1  UNL1        0.1574
      7 F          58.8299   87.0113    6.6790 F       1  UNL1       -0.2026
      8 N          61.6995   86.4928   10.8304 N.pl3   1  UNL1       -0.2968
      9 C          62.5879   86.7254   12.0165 C.ar    1  UNL1        0.1361
     10 N          62.8771   85.4459   12.7439 N.ar    1  UNL1       -0.2344
     11 C          63.7498   85.4575   13.9638 C.ar    1  UNL1        0.0648
     12 C          64.3333   86.7486   14.4563 C.ar    1  UNL1        0.0153
     13 C          64.0441   88.0281   13.7288 C.ar    1  UNL1        0.0086
     14 C          63.1714   88.0165   12.5089 C.ar    1  UNL1        0.0853
     15 C          63.0107   89.3938   11.9369 C.2     1  UNL1        0.2522
     16 O          63.7288   90.4897   12.6672 O.2     1  UNL1       -0.2697
     17 N          62.2268   89.8203   10.7312 N.am    1  UNL1       -0.2793
     18 H          61.4242   85.5597   10.6795 H       1  UNL1        0.1536
     19 H          62.2517   90.7824   10.5239 H       1  UNL1        0.1552
     20 C          59.3087   92.4346    3.5896 C.3     1  UNL1        0.0538
     21 C          59.0161   91.4844    4.7128 C.ar    1  UNL1        0.0786
     22 C          60.0306   90.8464    5.6148 C.ar    1  UNL1        0.0963
     23 N          59.2992   89.9731    6.5907 N.ar    1  UNL1       -0.2845
     24 C          57.8325   90.0714    6.2919 C.ar    1  UNL1        0.1826
     25 N          57.6576   91.0055    5.1312 N.ar    1  UNL1       -0.2280
     26 C          64.0390   84.1780   14.6913 C.3     1  UNL1        0.0721
     27 C          63.4136   82.8950   14.2299 C.ar    1  UNL1       -0.0162
     28 C          64.1316   82.0232   13.2427 C.ar    1  UNL1       -0.0039
     29 C          63.5062   80.7402   12.7812 C.ar    1  UNL1       -0.0003
     30 C          62.1628   80.3291   13.3070 C.ar    1  UNL1       -0.0000
     31 C          61.4449   81.2010   14.2941 C.ar    1  UNL1       -0.0003
     32 C          62.0703   82.4839   14.7556 C.ar    1  UNL1       -0.0039
@<TRIPOS>BOND
     1    20    21    1
     2    21    22   ar
     3    22    23   ar
     4    23     1    1
     5     1     2   ar
     6     2     3   ar
     7     3     4   ar
     8     4     5   ar
     9     5     6   ar
    10     6     7    1
    11     4     8    1
    12     8     9    1
    13     9    10   ar
    14    10    11   ar
    15    11    26    1
    16    26    27    1
    17    27    28   ar
    18    28    29   ar
    19    29    30   ar
    20    30    31   ar
    21    31    32   ar
    22    11    12   ar
    23    12    13   ar
    24    13    14   ar
    25    14    15    1
    26    15    16    2
    27    15    17   am
    28    23    24   ar
    29    24    25   ar
    30    25    21   ar
    31     6     1   ar
    32    14     9   ar
    33    17     3    1
    34    32    27   ar
    35     8    18    1
    36    17    19    1
@<TRIPOS>MOLECULE
*****
 32 36 0 0 0
SMALL
GASTEIGER

@<TRIPOS>ATOM
      1 C          65.1183   91.5005   13.2639 C.ar    1  UNL1        0.0942
      2 C          64.4741   90.1467   13.3107 C.ar    1  UNL1        0.0358
      3 C          63.4973   89.7438   12.2460 C.ar    1  UNL1        0.0658
      4 C          63.1646   90.6948   11.1347 C.ar    1  UNL1        0.0654
      5 C          63.8088   92.0485   11.0880 C.ar    1  UNL1        0.0470
      6 C          64.7857   92.4514   12.1526 C.ar    1  UNL1        0.1574
      7 F          65.4298   93.8052   12.1059 F       1  UNL1       -0.2026
      8 N          62.2255   90.4946    9.9823 N.pl3   1  UNL1       -0.2968
      9 C          61.3870   89.2942    9.6566 C.ar    1  UNL1        0.1361
     10 N          60.5849   89.5086    8.4074 N.ar    1  UNL1       -0.2344
     11 C          59.6765   88.4262    7.9044 C.ar    1  UNL1        0.0648
     12 C          59.5702   87.1294    8.6507 C.ar    1  UNL1        0.0153
     13 C          60.3722   86.9150    9.8999 C.ar    1  UNL1        0.0086
     14 C          61.2806   87.9974   10.4029 C.ar    1  UNL1        0.0853
     15 C          61.9865   87.5808   11.6592 C.2     1  UNL1        0.2522
     16 O          61.6630   86.2049   12.1616 O.2     1  UNL1       -0.2697
     17 N          62.9729   88.3579   12.4795 N.am    1  UNL1       -0.2793
     18 H          62.1493   91.2512    9.3570 H       1  UNL1        0.1536
     19 H          63.3225   87.8975   13.2764 H       1  UNL1        0.1552
     20 C          69.6229   92.5977   15.7910 C.3     1  UNL1        0.0538
     21 C          68.1658   92.4077   15.4901 C.ar    1  UNL1        0.0786
     22 C          67.5872   91.9531   14.1829 C.ar    1  UNL1        0.0963
     23 N          66.0952   91.9034   14.3286 N.ar    1  UNL1       -0.2845
     24 C          65.7514   92.3273   15.7258 C.ar    1  UNL1        0.1826
     25 N          67.0312   92.6390   16.4436 N.ar    1  UNL1       -0.2280
     26 C          58.8744   88.6405    6.6551 C.3     1  UNL1        0.0721
     27 C          59.0391   89.9054    5.8659 C.ar    1  UNL1       -0.0162
     28 C          57.8400   90.7426    5.5320 C.ar    1  UNL1       -0.0039
     29 C          58.0047   92.0076    4.7428 C.ar    1  UNL1       -0.0003
     30 C          59.3684   92.4353    4.2875 C.ar    1  UNL1       -0.0000
     31 C          60.5674   91.5981    4.6213 C.ar    1  UNL1       -0.0003
     32 C          60.4028   90.3332    5.4105 C.ar    1  UNL1       -0.0039
@<TRIPOS>BOND
     1    20    21    1
     2    21    22   ar
     3    22    23   ar
     4    23     1    1
     5     1     2   ar
     6     2     3   ar
     7     3     4   ar
     8     4     5   ar
     9     5     6   ar
    10     6     7    1
    11     4     8    1
    12     8     9    1
    13     9    10   ar
    14    10    11   ar
    15    11    26    1
    16    26    27    1
    17    27    28   ar
    18    28    29   ar
    19    29    30   ar
    20    30    31   ar
    21    31    32   ar
    22    11    12   ar
    23    12    13   ar
    24    13    14   ar
    25    14    15    1
    26    15    16    2
    27    15    17   am
    28    23    24   ar
    29    24    25   ar
    30    25    21   ar
    31     6     1   ar
    32    14     9   ar
    33    17     3    1
    34    32    27   ar
    35     8    18    1
    36    17    19    1
@<TRIPOS>MOLECULE
*****
 32 36 0 0 0
SMALL
GASTEIGER

@<TRIPOS>ATOM
      1 C          62.6952   83.6158   13.6369 C.ar    1  UNL1        0.0942
      2 C          62.1306   84.4703   12.5408 C.ar    1  UNL1        0.0358
      3 C          62.5533   85.9039   12.4143 C.ar    1  UNL1        0.0658
      4 C          63.5406   86.4831   13.3838 C.ar    1  UNL1        0.0654
      5 C          64.1050   85.6287   14.4798 C.ar    1  UNL1        0.0470
      6 C          63.6823   84.1950   14.6064 C.ar    1  UNL1        0.1574
      7 F          64.2469   83.3407   15.7024 F       1  UNL1       -0.2026
      8 N          64.0920   87.8770   13.4364 N.pl3   1  UNL1       -0.2968
      9 C          63.7925   89.0361   12.5325 C.ar    1  UNL1        0.1361
     10 N          64.5621   90.2588   12.9359 N.ar    1  UNL1       -0.2344
     11 C          64.4066   91.5328   12.1596 C.ar    1  UNL1        0.0648
     12 C          63.4817   91.5841   10.9798 C.ar    1  UNL1        0.0153
     13 C          62.7121   90.3614   10.5764 C.ar    1  UNL1        0.0086
     14 C          62.8676   89.0874   11.3527 C.ar    1  UNL1        0.0853
     15 C          62.0137   87.9923   10.7855 C.2     1  UNL1        0.2522
     16 O          61.1908   88.3631    9.5874 O.2     1  UNL1       -0.2697
     17 N          61.8738   86.5755   11.2579 N.am    1  UNL1       -0.2793
     18 H          64.7356   88.0548   14.1598 H       1  UNL1        0.1536
     19 H          61.2540   86.0120   10.7406 H       1  UNL1        0.1552
     20 C          59.7487   79.2940   14.3587 C.3     1  UNL1        0.0538
     21 C          60.9181   80.1956   14.0952 C.ar    1  UNL1        0.0786
     22 C          60.8851   81.6949   14.0596 C.ar    1  UNL1        0.0963
     23 N          62.2725   82.1822   13.7634 N.ar    1  UNL1       -0.2845
     24 C          63.1630   80.9841   13.6161 C.ar    1  UNL1        0.1826
     25 N          62.3259   79.7564   13.8211 N.ar    1  UNL1       -0.2280
     26 C          65.1762   92.7556   12.5630 C.3     1  UNL1        0.0721
     27 C          65.9891   93.4997   11.5454 C.ar    1  UNL1       -0.0162
     28 C          66.8337   92.7445   10.5623 C.ar    1  UNL1       -0.0039
     29 C          67.6466   93.4886    9.5447 C.ar    1  UNL1       -0.0003
     30 C          67.6149   94.9880    9.5102 C.ar    1  UNL1       -0.0000
     31 C          66.7703   95.7431   10.4933 C.ar    1  UNL1       -0.0003
     32 C          65.9574   94.9989   11.5109 C.ar    1  UNL1       -0.0039
@<TRIPOS>BOND
     1    20    21    1
     2    21    22   ar
     3    22    23   ar
     4    23     1    1
     5     1     2   ar
     6     2     3   ar
     7     3     4   ar
     8     4     5   ar
     9     5     6   ar
    10     6     7    1
    11     4     8    1
    12     8     9    1
    13     9    10   ar
    14    10    11   ar
    15    11    26    1
    16    26    27    1
    17    27    28   ar
    18    28    29   ar
    19    29    30   ar
    20    30    31   ar
    21    31    32   ar
    22    11    12   ar
    23    12    13   ar
    24    13    14   ar
    25    14    15    1
    26    15    16    2
    27    15    17   am
    28    23    24   ar
    29    24    25   ar
    30    25    21   ar
    31     6     1   ar
    32    14     9   ar
    33    17     3    1
    34    32    27   ar
    35     8    18    1
    36    17    19    1
@<TRIPOS>MOLECULE
*****
 32 36 0 0 0
SMALL
GASTEIGER

@<TRIPOS>ATOM
      1 C          63.0743   82.6392   12.7938 C.ar    1  UNL1        0.0942
      2 C          62.7564   83.1468   14.1691 C.ar    1  UNL1        0.0358
      3 C          62.9927   84.5884   14.5096 C.ar    1  UNL1        0.0658
      4 C          63.5468   85.5224   13.4749 C.ar    1  UNL1        0.0654
      5 C          63.8646   85.0148   12.0997 C.ar    1  UNL1        0.0470
      6 C          63.6283   83.5732   11.7591 C.ar    1  UNL1        0.1574
      7 F          63.9461   83.0657   10.3838 F       1  UNL1       -0.2026
      8 N          63.8554   86.9846   13.6043 N.pl3   1  UNL1       -0.2968
      9 C          63.6862   87.8740   14.8003 C.ar    1  UNL1        0.1361
     10 N          64.1175   89.2796   14.5034 N.ar    1  UNL1       -0.2344
     11 C          64.0291   90.3320   15.5686 C.ar    1  UNL1        0.0648
     12 C          63.5095   89.9787   16.9307 C.ar    1  UNL1        0.0153
     13 C          63.0782   88.5731   17.2276 C.ar    1  UNL1        0.0086
     14 C          63.1666   87.5207   16.1624 C.ar    1  UNL1        0.0853
     15 C          62.6878   86.1909   16.6648 C.2     1  UNL1        0.2522
     16 O          62.2253   86.1623   18.0914 O.2     1  UNL1       -0.2697
     17 N          62.6104   84.8859   15.9293 N.am    1  UNL1       -0.2793
     18 H          64.2168   87.4179   12.7976 H       1  UNL1        0.1536
     19 H          62.2628   84.1239   16.4467 H       1  UNL1        0.1552
     20 C          62.7311   78.1038   10.1119 C.3     1  UNL1        0.0538
     21 C          62.6803   79.1129   11.2205 C.ar    1  UNL1        0.0786
     22 C          63.0321   80.5666   11.1064 C.ar    1  UNL1        0.0963
     23 N          62.8380   81.1976   12.4532 N.ar    1  UNL1       -0.2845
     24 C          62.3661   80.1340   13.3999 C.ar    1  UNL1        0.1826
     25 N          62.2686   78.8455   12.6379 N.ar    1  UNL1       -0.2280
     26 C          64.4604   91.7377   15.2717 C.3     1  UNL1        0.0721
     27 C          65.9184   92.0613   15.1327 C.ar    1  UNL1       -0.0162
     28 C          66.6444   92.7476   16.2517 C.ar    1  UNL1       -0.0039
     29 C          68.1024   93.0712   16.1127 C.ar    1  UNL1       -0.0003
     30 C          68.8346   92.7085   14.8547 C.ar    1  UNL1       -0.0000
     31 C          68.1086   92.0223   13.7358 C.ar    1  UNL1       -0.0003
     32 C          66.6505   91.6986   13.8748 C.ar    1  UNL1       -0.0039
@<TRIPOS>BOND
     1    20    21    1
     2    21    22   ar
     3    22    23   ar
     4    23     1    1
     5     1     2   ar
     6     2     3   ar
     7     3     4   ar
     8     4     5   ar
     9     5     6   ar
    10     6     7    1
    11     4     8    1
    12     8     9    1
    13     9    10   ar
    14    10    11   ar
    15    11    26    1
    16    26    27    1
    17    27    28   ar
    18    28    29   ar
    19    29    30   ar
    20    30    31   ar
    21    31    32   ar
    22    11    12   ar
    23    12    13   ar
    24    13    14   ar
    25    14    15    1
    26    15    16    2
    27    15    17   am
    28    23    24   ar
    29    24    25   ar
    30    25    21   ar
    31     6     1   ar
    32    14     9   ar
    33    17     3    1
    34    32    27   ar
    35     8    18    1
    36    17    19    1
@<TRIPOS>MOLECULE
*****
 32 36 0 0 0
SMALL
GASTEIGER

@<TRIPOS>ATOM
      1 C          62.4665   83.2165   13.7480 C.ar    1  UNL1        0.0942
      2 C          62.4433   84.0442   14.9988 C.ar    1  UNL1        0.0358
      3 C          62.8700   85.4816   14.9550 C.ar    1  UNL1        0.0658
      4 C          63.3199   86.0912   13.6604 C.ar    1  UNL1        0.0654
      5 C          63.3431   85.2635   12.4097 C.ar    1  UNL1        0.0470
      6 C          62.9164   83.8262   12.4535 C.ar    1  UNL1        0.1574
      7 F          62.9396   82.9986   11.2027 F       1  UNL1       -0.2026
      8 N          63.7826   87.4938   13.3981 N.pl3   1  UNL1       -0.2968
      9 C          63.9096   88.6331   14.3655 C.ar    1  UNL1        0.1361
     10 N          64.4126   89.8735   13.6885 N.ar    1  UNL1       -0.2344
     11 C          64.6113   91.1319   14.4801 C.ar    1  UNL1        0.0648
     12 C          64.3070   91.1500   15.9488 C.ar    1  UNL1        0.0153
     13 C          63.8041   89.9097   16.6259 C.ar    1  UNL1        0.0086
     14 C          63.6054   88.6512   15.8343 C.ar    1  UNL1        0.0853
     15 C          63.0989   87.5345   16.6982 C.2     1  UNL1        0.2522
     16 O          62.8924   87.8732   18.1448 O.2     1  UNL1       -0.2697
     17 N          62.7717   86.1239   16.3070 N.am    1  UNL1       -0.2793
     18 H          64.0364   87.6929   12.4680 H       1  UNL1        0.1536
     19 H          62.4498   85.5428   17.0336 H       1  UNL1        0.1552
     20 C          59.5369   78.8636   14.3402 C.3     1  UNL1        0.0538
     21 C          60.6932   79.7783   14.0640 C.ar    1  UNL1        0.0786
     22 C          60.6727   81.2758   14.1489 C.ar    1  UNL1        0.0963
     23 N          62.0398   81.7792   13.7918 N.ar    1  UNL1       -0.2845
     24 C          62.9054   80.5928   13.4862 C.ar    1  UNL1        0.1826
     25 N          62.0731   79.3562   13.6544 N.ar    1  UNL1       -0.2280
     26 C          65.1143   92.3724   13.8030 C.3     1  UNL1        0.0721
     27 C          66.1483   92.2696   12.7212 C.ar    1  UNL1       -0.0162
     28 C          65.7878   92.6065   11.3047 C.ar    1  UNL1       -0.0039
     29 C          66.8218   92.5037   10.2229 C.ar    1  UNL1       -0.0003
     30 C          68.2163   92.0640   10.5577 C.ar    1  UNL1       -0.0000
     31 C          68.5767   91.7271   11.9742 C.ar    1  UNL1       -0.0003
     32 C          67.5427   91.8299   13.0560 C.ar    1  UNL1       -0.0039
@<TRIPOS>BOND
     1    20    21    1
     2    21    22   ar
     3    22    23   ar
     4    23     1    1
     5     1     2   ar
     6     2     3   ar
     7     3     4   ar
     8     4     5   ar
     9     5     6   ar
    10     6     7    1
    11     4     8    1
    12     8     9    1
    13     9    10   ar
    14    10    11   ar
    15    11    26    1
    16    26    27    1
    17    27    28   ar
    18    28    29   ar
    19    29    30   ar
    20    30    31   ar
    21    31    32   ar
    22    11    12   ar
    23    12    13   ar
    24    13    14   ar
    25    14    15    1
    26    15    16    2
    27    15    17   am
    28    23    24   ar
    29    24    25   ar
    30    25    21   ar
    31     6     1   ar
    32    14     9   ar
    33    17     3    1
    34    32    27   ar
    35     8    18    1
    36    17    19    1
