@<TRIPOS>MOLECULE
*****
 24 27 0 0 0
SMALL
GASTEIGER

@<TRIPOS>ATOM
      1 C          63.2535   88.4663   12.8884 C.2     1  UNL1        0.3251
      2 N          62.4321   88.9423   11.7271 N.2     1  UNL1       -0.0388
      3 C          61.7572   88.1285   10.6630 C.ar    1  UNL1        0.2072
      4 C          61.0337   89.0020    9.6814 C.ar    1  UNL1        0.0593
      5 C          60.2900   88.3847    8.5342 C.ar    1  UNL1        0.0615
      6 CL         59.5664   89.2582    7.5526 Cl      1  UNL1       -0.0821
      7 C          60.2698   86.8941    8.3687 C.ar    1  UNL1        0.0129
      8 C          60.9933   86.0206    9.3503 C.ar    1  UNL1        0.0192
      9 C          61.7370   86.6378   10.4974 C.ar    1  UNL1        0.0920
     10 N          62.3868   85.5927   11.3551 N.pl3   1  UNL1       -0.3094
     11 C          63.2172   85.7801   12.5902 C.ar    1  UNL1        0.0556
     12 C          63.6777   84.4651   13.1457 C.ar    1  UNL1        0.0149
     13 C          64.5239   84.4290   14.3836 C.ar    1  UNL1        0.0013
     14 C          64.9097   85.7079   15.0660 C.ar    1  UNL1        0.0003
     15 C          64.4492   87.0229   14.5105 C.ar    1  UNL1        0.0086
     16 C          63.6029   87.0590   13.2726 C.ar    1  UNL1        0.0956
     17 H          62.2502   84.6605   11.0697 H       1  UNL1        0.1523
     18 C          65.4294   92.7592   16.4712 C.3     1  UNL1        0.0898
     19 N          64.8854   91.6860   15.5756 N.3     1  UNL1       -0.2645
     20 C          63.8215   90.7565   16.0794 C.3     1  UNL1        0.1237
     21 C          63.2774   89.6833   15.1838 C.3     1  UNL1        0.2197
     22 N          63.7975   89.5395   13.7841 N.pl3   1  UNL1       -0.1877
     23 C          64.8615   90.4691   13.2802 C.3     1  UNL1        0.2197
     24 C          65.4055   91.5423   14.1759 C.3     1  UNL1        0.1237
@<TRIPOS>BOND
     1    18    19    1
     2    19    20    1
     3    20    21    1
     4    21    22    1
     5    22     1    1
     6     1     2    2
     7     2     3    1
     8     3     4   ar
     9     4     5   ar
    10     5     6    1
    11     5     7   ar
    12     7     8   ar
    13     8     9   ar
    14     9    10    1
    15    10    11    1
    16    11    12   ar
    17    12    13   ar
    18    13    14   ar
    19    14    15   ar
    20    15    16   ar
    21    22    23    1
    22    23    24    1
    23    24    19    1
    24    16     1    1
    25     9     3   ar
    26    16    11   ar
    27    10    17    1
@<TRIPOS>MOLECULE
*****
 24 27 0 0 0
SMALL
GASTEIGER

@<TRIPOS>ATOM
      1 C          62.3457   87.3113   11.6130 C.2     1  UNL1        0.3251
      2 N          62.3161   85.8402   11.9041 N.2     1  UNL1       -0.0388
      3 C          62.9976   85.0920   13.0113 C.ar    1  UNL1        0.2072
      4 C          62.7054   83.6225   12.9406 C.ar    1  UNL1        0.0593
      5 C          63.2927   82.6911   13.9594 C.ar    1  UNL1        0.0615
      6 CL         63.0005   81.2216   13.8887 Cl      1  UNL1       -0.0821
      7 C          64.1722   83.2294   15.0487 C.ar    1  UNL1        0.0129
      8 C          64.4644   84.6989   15.1194 C.ar    1  UNL1        0.0192
      9 C          63.8771   85.6303   14.1008 C.ar    1  UNL1        0.0920
     10 N          64.2922   87.0496   14.3520 N.pl3   1  UNL1       -0.3094
     11 C          63.9305   88.2813   13.5760 C.ar    1  UNL1        0.0556
     12 C          64.5611   89.5068   14.1678 C.ar    1  UNL1        0.0149
     13 C          64.3255   90.8488   13.5406 C.ar    1  UNL1        0.0013
     14 C          63.4592   90.9653   12.3216 C.ar    1  UNL1        0.0003
     15 C          62.8286   89.7398   11.7298 C.ar    1  UNL1        0.0086
     16 C          63.0642   88.3977   12.3570 C.ar    1  UNL1        0.0956
     17 H          64.8799   87.1916   15.1290 H       1  UNL1        0.1523
     18 C          59.1705   89.0850    6.8410 C.3     1  UNL1        0.0898
     19 N          59.9643   88.6417    8.0340 N.3     1  UNL1       -0.2645
     20 C          60.0242   89.5060    9.2584 C.3     1  UNL1        0.1237
     21 C          60.8180   89.0626   10.4514 C.3     1  UNL1        0.2197
     22 N          61.5519   87.7548   10.4200 N.pl3   1  UNL1       -0.1877
     23 C          61.4920   86.8904    9.1955 C.3     1  UNL1        0.2197
     24 C          60.6982   87.3338    8.0025 C.3     1  UNL1        0.1237
@<TRIPOS>BOND
     1    18    19    1
     2    19    20    1
     3    20    21    1
     4    21    22    1
     5    22     1    1
     6     1     2    2
     7     2     3    1
     8     3     4   ar
     9     4     5   ar
    10     5     6    1
    11     5     7   ar
    12     7     8   ar
    13     8     9   ar
    14     9    10    1
    15    10    11    1
    16    11    12   ar
    17    12    13   ar
    18    13    14   ar
    19    14    15   ar
    20    15    16   ar
    21    22    23    1
    22    23    24    1
    23    24    19    1
    24    16     1    1
    25     9     3   ar
    26    16    11   ar
    27    10    17    1
@<TRIPOS>MOLECULE
*****
 24 27 0 0 0
SMALL
GASTEIGER

@<TRIPOS>ATOM
      1 C          62.7351   86.5777   11.9826 C.2     1  UNL1        0.3251
      2 N          63.5209   87.4364   12.9288 N.2     1  UNL1       -0.0388
      3 C          63.6989   88.9258   12.9118 C.ar    1  UNL1        0.2072
      4 C          64.5673   89.3868   14.0446 C.ar    1  UNL1        0.0593
      5 C          64.8721   90.8462   14.2103 C.ar    1  UNL1        0.0615
      6 CL         65.7404   91.3072   15.3431 Cl      1  UNL1       -0.0821
      7 C          64.3084   91.8445   13.2430 C.ar    1  UNL1        0.0129
      8 C          63.4400   91.3835   12.1102 C.ar    1  UNL1        0.0192
      9 C          63.1353   89.9242   11.9445 C.ar    1  UNL1        0.0920
     10 N          62.2543   89.6797   10.7554 N.pl3   1  UNL1       -0.3094
     11 C          61.7194   88.3766   10.2397 C.ar    1  UNL1        0.0556
     12 C          60.8721   88.5770    9.0182 C.ar    1  UNL1        0.0149
     13 C          60.2389   87.3967    8.3430 C.ar    1  UNL1        0.0013
     14 C          60.4529   86.0162    8.8892 C.ar    1  UNL1        0.0003
     15 C          61.3001   85.8159   10.1106 C.ar    1  UNL1        0.0086
     16 C          61.9334   86.9961   10.7859 C.ar    1  UNL1        0.0956
     17 H          61.9925   90.4805   10.2459 H       1  UNL1        0.1523
     18 C          62.8087   80.6904   13.1379 C.3     1  UNL1        0.0898
     19 N          62.7903   82.1622   12.8490 N.3     1  UNL1       -0.2645
     20 C          63.1381   82.6619   11.4782 C.3     1  UNL1        0.1237
     21 C          63.1197   84.1337   11.1894 C.3     1  UNL1        0.2197
     22 N          62.7535   85.1059   12.2714 N.pl3   1  UNL1       -0.1877
     23 C          62.4057   84.6062   13.6424 C.3     1  UNL1        0.2197
     24 C          62.4241   83.1343   13.9312 C.3     1  UNL1        0.1237
@<TRIPOS>BOND
     1    18    19    1
     2    19    20    1
     3    20    21    1
     4    21    22    1
     5    22     1    1
     6     1     2    2
     7     2     3    1
     8     3     4   ar
     9     4     5   ar
    10     5     6    1
    11     5     7   ar
    12     7     8   ar
    13     8     9   ar
    14     9    10    1
    15    10    11    1
    16    11    12   ar
    17    12    13   ar
    18    13    14   ar
    19    14    15   ar
    20    15    16   ar
    21    22    23    1
    22    23    24    1
    23    24    19    1
    24    16     1    1
    25     9     3   ar
    26    16    11   ar
    27    10    17    1
@<TRIPOS>MOLECULE
*****
 24 27 0 0 0
SMALL
GASTEIGER

@<TRIPOS>ATOM
      1 C          62.4047   85.4540   12.0594 C.2     1  UNL1        0.3251
      2 N          61.5425   85.7373   10.8651 N.2     1  UNL1       -0.0388
      3 C          61.2265   87.0602   10.2325 C.ar    1  UNL1        0.2072
      4 C          60.3192   86.8988    9.0490 C.ar    1  UNL1        0.0593
      5 C          59.8799   88.1037    8.2709 C.ar    1  UNL1        0.0615
      6 CL         58.9725   87.9423    7.0874 Cl      1  UNL1       -0.0821
      7 C          60.3479   89.4698    8.6764 C.ar    1  UNL1        0.0129
      8 C          61.2552   89.6312    9.8599 C.ar    1  UNL1        0.0192
      9 C          61.6945   88.4264   10.6379 C.ar    1  UNL1        0.0920
     10 N          62.5942   88.8071   11.7761 N.pl3   1  UNL1       -0.3094
     11 C          63.2481   87.9158   12.7901 C.ar    1  UNL1        0.0556
     12 C          64.0728   88.7052   13.7630 C.ar    1  UNL1        0.0149
     13 C          64.8131   88.0024   14.8620 C.ar    1  UNL1        0.0013
     14 C          64.7287   86.5100   14.9881 C.ar    1  UNL1        0.0003
     15 C          63.9041   85.7206   14.0151 C.ar    1  UNL1        0.0086
     16 C          63.1638   86.4235   12.9161 C.ar    1  UNL1        0.0956
     17 H          62.7802   89.7693   11.8702 H       1  UNL1        0.1523
     18 C          62.8801   79.6789   13.6158 C.3     1  UNL1        0.0898
     19 N          62.7612   81.1227   13.2267 N.3     1  UNL1       -0.2645
     20 C          62.2273   82.1226   14.2090 C.3     1  UNL1        0.1237
     21 C          62.1085   83.5664   13.8200 C.3     1  UNL1        0.2197
     22 N          62.5235   84.0102   12.4485 N.pl3   1  UNL1       -0.1877
     23 C          63.0574   83.0102   11.4662 C.3     1  UNL1        0.2197
     24 C          63.1763   81.5664   11.8553 C.3     1  UNL1        0.1237
@<TRIPOS>BOND
     1    18    19    1
     2    19    20    1
     3    20    21    1
     4    21    22    1
     5    22     1    1
     6     1     2    2
     7     2     3    1
     8     3     4   ar
     9     4     5   ar
    10     5     6    1
    11     5     7   ar
    12     7     8   ar
    13     8     9   ar
    14     9    10    1
    15    10    11    1
    16    11    12   ar
    17    12    13   ar
    18    13    14   ar
    19    14    15   ar
    20    15    16   ar
    21    22    23    1
    22    23    24    1
    23    24    19    1
    24    16     1    1
    25     9     3   ar
    26    16    11   ar
    27    10    17    1
@<TRIPOS>MOLECULE
*****
 24 27 0 0 0
SMALL
GASTEIGER

@<TRIPOS>ATOM
      1 C          63.4338   88.2618   13.2057 C.2     1  UNL1        0.3251
      2 N          63.7224   86.8764   13.7029 N.2     1  UNL1       -0.0388
      3 C          63.4124   85.5637   13.0464 C.ar    1  UNL1        0.2072
      4 C          63.8728   84.4090   13.8859 C.ar    1  UNL1        0.0593
      5 C          63.6581   83.0029   13.4096 C.ar    1  UNL1        0.0615
      6 CL         64.1185   81.8482   14.2490 Cl      1  UNL1       -0.0821
      7 C          62.9831   82.7516   12.0939 C.ar    1  UNL1        0.0129
      8 C          62.5227   83.9063   11.2545 C.ar    1  UNL1        0.0192
      9 C          62.7373   85.3123   11.7307 C.ar    1  UNL1        0.0920
     10 N          62.2055   86.3116   10.7465 N.pl3   1  UNL1       -0.3094
     11 C          62.2174   87.8090   10.8348 C.ar    1  UNL1        0.0556
     12 C          61.5797   88.4341    9.6297 C.ar    1  UNL1        0.0149
     13 C          61.4887   89.9272    9.5189 C.ar    1  UNL1        0.0013
     14 C          62.0353   90.7952   10.6134 C.ar    1  UNL1        0.0003
     15 C          62.6730   90.1700   11.8186 C.ar    1  UNL1        0.0086
     16 C          62.7640   88.6769   11.9293 C.ar    1  UNL1        0.0956
     17 H          61.7943   85.9348    9.9352 H       1  UNL1        0.1523
     18 C          65.1912   92.7353   16.7974 C.3     1  UNL1        0.0898
     19 N          64.7518   91.6169   15.8995 N.3     1  UNL1       -0.2645
     20 C          63.6513   90.6948   16.3336 C.3     1  UNL1        0.1237
     21 C          63.2120   89.5764   15.4357 C.3     1  UNL1        0.2197
     22 N          63.8731   89.3802   14.1036 N.pl3   1  UNL1       -0.1877
     23 C          64.9737   90.3024   13.6695 C.3     1  UNL1        0.2197
     24 C          65.4130   91.4207   14.5675 C.3     1  UNL1        0.1237
@<TRIPOS>BOND
     1    18    19    1
     2    19    20    1
     3    20    21    1
     4    21    22    1
     5    22     1    1
     6     1     2    2
     7     2     3    1
     8     3     4   ar
     9     4     5   ar
    10     5     6    1
    11     5     7   ar
    12     7     8   ar
    13     8     9   ar
    14     9    10    1
    15    10    11    1
    16    11    12   ar
    17    12    13   ar
    18    13    14   ar
    19    14    15   ar
    20    15    16   ar
    21    22    23    1
    22    23    24    1
    23    24    19    1
    24    16     1    1
    25     9     3   ar
    26    16    11   ar
    27    10    17    1
@<TRIPOS>MOLECULE
*****
 24 27 0 0 0
SMALL
GASTEIGER

@<TRIPOS>ATOM
      1 C          62.4978   85.5468   11.8599 C.2     1  UNL1        0.3251
      2 N          61.6735   86.0170   10.6983 N.2     1  UNL1       -0.0388
      3 C          61.3913   87.4237   10.2604 C.ar    1  UNL1        0.2072
      4 C          60.5162   87.4533    9.0425 C.ar    1  UNL1        0.0593
      5 C          60.1135   88.7668    8.4400 C.ar    1  UNL1        0.0615
      6 CL         59.2385   88.7964    7.2221 Cl      1  UNL1       -0.0821
      7 C          60.5858   90.0504    9.0556 C.ar    1  UNL1        0.0129
      8 C          61.4609   90.0208   10.2735 C.ar    1  UNL1        0.0192
      9 C          61.8636   88.7075   10.8760 C.ar    1  UNL1        0.0920
     10 N          62.7348   88.9016   12.0814 N.pl3   1  UNL1       -0.3094
     11 C          63.3490   87.8600   12.9691 C.ar    1  UNL1        0.0556
     12 C          64.1548   88.4839   14.0698 C.ar    1  UNL1        0.0149
     13 C          64.8551   87.6147   15.0718 C.ar    1  UNL1        0.0013
     14 C          64.7496   86.1217   14.9732 C.ar    1  UNL1        0.0003
     15 C          63.9438   85.4978   13.8726 C.ar    1  UNL1        0.0086
     16 C          63.2435   86.3670   12.8705 C.ar    1  UNL1        0.0956
     17 H          62.9294   89.8363   12.3218 H       1  UNL1        0.1523
     18 C          62.8605   79.5984   12.5561 C.3     1  UNL1        0.0898
     19 N          62.7698   81.0855   12.3820 N.3     1  UNL1       -0.2645
     20 C          63.3663   81.7364   11.1694 C.3     1  UNL1        0.1237
     21 C          63.2757   83.2235   10.9953 C.3     1  UNL1        0.2197
     22 N          62.5885   84.0597   12.0339 N.pl3   1  UNL1       -0.1877
     23 C          61.9920   83.4087   13.2466 C.3     1  UNL1        0.2197
     24 C          62.0827   81.9216   13.4206 C.3     1  UNL1        0.1237
@<TRIPOS>BOND
     1    18    19    1
     2    19    20    1
     3    20    21    1
     4    21    22    1
     5    22     1    1
     6     1     2    2
     7     2     3    1
     8     3     4   ar
     9     4     5   ar
    10     5     6    1
    11     5     7   ar
    12     7     8   ar
    13     8     9   ar
    14     9    10    1
    15    10    11    1
    16    11    12   ar
    17    12    13   ar
    18    13    14   ar
    19    14    15   ar
    20    15    16   ar
    21    22    23    1
    22    23    24    1
    23    24    19    1
    24    16     1    1
    25     9     3   ar
    26    16    11   ar
    27    10    17    1
@<TRIPOS>MOLECULE
*****
 24 27 0 0 0
SMALL
GASTEIGER

@<TRIPOS>ATOM
      1 C          64.2252   89.1819   13.6866 C.2     1  UNL1        0.3251
      2 N          65.2094   90.0007   14.4683 N.2     1  UNL1       -0.0388
      3 C          65.7224   91.3790   14.1731 C.ar    1  UNL1        0.2072
      4 C          66.7007   91.8343   15.2150 C.ar    1  UNL1        0.0593
      5 C          67.3346   93.1896   15.1072 C.ar    1  UNL1        0.0615
      6 CL         68.3130   93.6449   16.1491 Cl      1  UNL1       -0.0821
      7 C          66.9902   94.0894   13.9577 C.ar    1  UNL1        0.0129
      8 C          66.0118   93.6341   12.9158 C.ar    1  UNL1        0.0192
      9 C          65.3779   92.2790   13.0235 C.ar    1  UNL1        0.0920
     10 N          64.4353   92.0227   11.8851 N.pl3   1  UNL1       -0.3094
     11 C          63.6045   90.8034   11.6151 C.ar    1  UNL1        0.0556
     12 C          62.7955   90.9581   10.3615 C.ar    1  UNL1        0.0149
     13 C          61.8930   89.8484    9.9096 C.ar    1  UNL1        0.0013
     14 C          61.7995   88.5841   10.7113 C.ar    1  UNL1        0.0003
     15 C          62.6085   88.4294   11.9649 C.ar    1  UNL1        0.0086
     16 C          63.5110   89.5391   12.4168 C.ar    1  UNL1        0.0956
     17 H          64.3509   92.7512   11.2283 H       1  UNL1        0.1523
     18 C          62.9810   83.7607   15.9367 C.3     1  UNL1        0.0898
     19 N          63.2921   85.1160   15.3741 N.3     1  UNL1       -0.2645
     20 C          63.5471   85.2777   13.9049 C.3     1  UNL1        0.1237
     21 C          63.8581   86.6329   13.3423 C.3     1  UNL1        0.2197
     22 N          63.9142   87.8266   14.2491 N.pl3   1  UNL1       -0.1877
     23 C          63.6591   87.6648   15.7184 C.3     1  UNL1        0.2197
     24 C          63.3481   86.3095   16.2809 C.3     1  UNL1        0.1237
@<TRIPOS>BOND
     1    18    19    1
     2    19    20    1
     3    20    21    1
     4    21    22    1
     5    22     1    1
     6     1     2    2
     7     2     3    1
     8     3     4   ar
     9     4     5   ar
    10     5     6    1
    11     5     7   ar
    12     7     8   ar
    13     8     9   ar
    14     9    10    1
    15    10    11    1
    16    11    12   ar
    17    12    13   ar
    18    13    14   ar
    19    14    15   ar
    20    15    16   ar
    21    22    23    1
    22    23    24    1
    23    24    19    1
    24    16     1    1
    25     9     3   ar
    26    16    11   ar
    27    10    17    1
@<TRIPOS>MOLECULE
*****
 24 27 0 0 0
SMALL
GASTEIGER

@<TRIPOS>ATOM
      1 C          62.7426   86.0653   11.2259 C.2     1  UNL1        0.3251
      2 N          63.0061   87.5217   11.4697 N.2     1  UNL1       -0.0388
      3 C          63.4435   88.1935   12.7376 C.ar    1  UNL1        0.2072
      4 C          63.5923   89.6743   12.5500 C.ar    1  UNL1        0.0593
      5 C          64.0231   90.5364   13.6995 C.ar    1  UNL1        0.0615
      6 CL         64.1720   92.0171   13.5119 Cl      1  UNL1       -0.0821
      7 C          64.3050   89.9177   15.0365 C.ar    1  UNL1        0.0129
      8 C          64.1561   88.4370   15.2241 C.ar    1  UNL1        0.0192
      9 C          63.7254   87.5749   14.0747 C.ar    1  UNL1        0.0920
     10 N          63.6395   86.1316   14.4741 N.pl3   1  UNL1       -0.3094
     11 C          63.2505   84.9505   13.6353 C.ar    1  UNL1        0.0556
     12 C          63.2949   83.6774   14.4272 C.ar    1  UNL1        0.0149
     13 C          62.9401   82.3748   13.7735 C.ar    1  UNL1        0.0013
     14 C          62.5409   82.3453   12.3279 C.ar    1  UNL1        0.0003
     15 C          62.4965   83.6184   11.5360 C.ar    1  UNL1        0.0086
     16 C          62.8513   84.9210   12.1896 C.ar    1  UNL1        0.0956
     17 H          63.8687   85.9333   15.4108 H       1  UNL1        0.1523
     18 C          61.0265   84.6266    5.6595 C.3     1  UNL1        0.0898
     19 N          61.4554   84.9863    7.0511 N.3     1  UNL1       -0.2645
     20 C          60.5247   85.7443    7.9505 C.3     1  UNL1        0.1237
     21 C          60.9537   86.1040    9.3421 C.3     1  UNL1        0.2197
     22 N          62.3135   85.7057    9.8343 N.pl3   1  UNL1       -0.1877
     23 C          63.2443   84.9476    8.9349 C.3     1  UNL1        0.2197
     24 C          62.8153   84.5879    7.5432 C.3     1  UNL1        0.1237
@<TRIPOS>BOND
     1    18    19    1
     2    19    20    1
     3    20    21    1
     4    21    22    1
     5    22     1    1
     6     1     2    2
     7     2     3    1
     8     3     4   ar
     9     4     5   ar
    10     5     6    1
    11     5     7   ar
    12     7     8   ar
    13     8     9   ar
    14     9    10    1
    15    10    11    1
    16    11    12   ar
    17    12    13   ar
    18    13    14   ar
    19    14    15   ar
    20    15    16   ar
    21    22    23    1
    22    23    24    1
    23    24    19    1
    24    16     1    1
    25     9     3   ar
    26    16    11   ar
    27    10    17    1
@<TRIPOS>MOLECULE
*****
 24 27 0 0 0
SMALL
GASTEIGER

@<TRIPOS>ATOM
      1 C          62.1649   93.9768   -2.4995 C.2     1  UNL1        0.3251
      2 N          60.7976   93.8732   -3.1075 N.2     1  UNL1       -0.0388
      3 C          59.5286   93.3811   -2.4770 C.ar    1  UNL1        0.2072
      4 C          58.3791   93.4431   -3.4386 C.ar    1  UNL1        0.0593
      5 C          57.0144   92.9952   -3.0060 C.ar    1  UNL1        0.0615
      6 CL         55.8648   93.0572   -3.9676 Cl      1  UNL1       -0.0821
      7 C          56.7993   92.4853   -1.6119 C.ar    1  UNL1        0.0129
      8 C          57.9489   92.4233   -0.6503 C.ar    1  UNL1        0.0192
      9 C          59.3135   92.8711   -1.0828 C.ar    1  UNL1        0.0920
     10 N          60.3143   92.7274    0.0252 N.pl3   1  UNL1       -0.3094
     11 C          61.7774   93.0580    0.0127 C.ar    1  UNL1        0.0556
     12 C          62.4174   92.7622    1.3367 C.ar    1  UNL1        0.0149
     13 C          63.8809   93.0225    1.5370 C.ar    1  UNL1        0.0013
     14 C          64.7045   93.5785    0.4134 C.ar    1  UNL1        0.0003
     15 C          64.0646   93.8743   -0.9105 C.ar    1  UNL1        0.0086
     16 C          62.6010   93.6141   -1.1109 C.ar    1  UNL1        0.0956
     17 H          59.9647   92.3686    0.8727 H       1  UNL1        0.1523
     18 C          66.4578   96.1269   -6.0979 C.3     1  UNL1        0.0898
     19 N          65.3846   95.5895   -5.1983 N.3     1  UNL1       -0.2645
     20 C          64.6774   96.5055   -4.2441 C.3     1  UNL1        0.1237
     21 C          63.6042   95.9681   -3.3445 C.3     1  UNL1        0.2197
     22 N          63.2381   94.5144   -3.3991 N.pl3   1  UNL1       -0.1877
     23 C          63.9454   93.5983   -4.3534 C.3     1  UNL1        0.2197
     24 C          65.0186   94.1358   -5.2530 C.3     1  UNL1        0.1237
@<TRIPOS>BOND
     1    18    19    1
     2    19    20    1
     3    20    21    1
     4    21    22    1
     5    22     1    1
     6     1     2    2
     7     2     3    1
     8     3     4   ar
     9     4     5   ar
    10     5     6    1
    11     5     7   ar
    12     7     8   ar
    13     8     9   ar
    14     9    10    1
    15    10    11    1
    16    11    12   ar
    17    12    13   ar
    18    13    14   ar
    19    14    15   ar
    20    15    16   ar
    21    22    23    1
    22    23    24    1
    23    24    19    1
    24    16     1    1
    25     9     3   ar
    26    16    11   ar
    27    10    17    1
