@<TRIPOS>MOLECULE
*****
 57 64 0 0 0
SMALL
GASTEIGER

@<TRIPOS>ATOM
      1 N          65.3517   89.3635   14.6700 N.3     1  UNL1       -0.1862
      2 C          65.5372   88.1146   15.4799 C.3     1  UNL1        0.1775
      3 C          64.8092   86.8593   15.1001 C.2     1  UNL1        0.2452
      4 O          64.9948   85.6105   15.9101 O.2     1  UNL1       -0.2732
      5 N          63.8958   86.8528   13.9104 N.am    1  UNL1       -0.2541
      6 C          63.1678   85.5975   13.5306 C.3     1  UNL1        0.1577
      7 C          62.2544   85.5910   12.3408 C.2     1  UNL1        0.2445
      8 O          61.5264   84.3356   11.9610 O.2     1  UNL1       -0.2731
      9 N          62.0688   86.8398   11.5309 N.am    1  UNL1       -0.2705
     10 C          62.7967   88.0951   11.9107 C.3     1  UNL1        0.1359
     11 C          63.7102   88.1016   13.1005 C.3     1  UNL1        0.1908
     12 N          64.4382   89.3569   13.4803 N.am    1  UNL1       -0.1863
     13 C          64.2526   90.6058   12.6703 C.2     1  UNL1        0.3191
     14 O          63.3391   90.5993   11.4806 O.2     1  UNL1       -0.2512
     15 N          64.9806   91.8611   13.0501 N.am    1  UNL1       -0.2836
     16 H          65.5801   91.8654   13.8310 H       1  UNL1        0.1513
     17 C          66.0796   90.6188   15.0498 C.3     1  UNL1        0.1188
     18 C          68.0703   92.2336   14.6263 C.2     1  UNL1       -0.0034
     19 C          67.4711   90.8609   14.5447 C.2     1  UNL1       -0.0071
     20 C          63.3534   84.3487   14.3405 C.3     1  UNL1        0.0556
     21 C          63.1587   83.0051   13.7025 C.ar    1  UNL1       -0.0198
     22 C          63.9862   82.6117   12.5150 C.ar    1  UNL1       -0.0011
     23 C          63.7915   81.2682   11.8770 C.ar    1  UNL1        0.0363
     24 C          62.7692   80.3181   12.4266 C.ar    1  UNL1        0.1337
     25 O          62.5745   78.9745   11.7886 O.3     1  UNL1       -0.5055
     26 C          61.9416   80.7114   13.6142 C.ar    1  UNL1        0.0363
     27 C          62.1363   82.0549   14.2521 C.ar    1  UNL1       -0.0011
     28 H          63.0915   78.7288   11.0468 H       1  UNL1        0.2922
     29 C          61.1553   86.8333   10.3411 C.3     1  UNL1        0.1217
     30 C          60.5573   88.1174    9.8476 C.ar    1  UNL1        0.0135
     31 C          60.3696   89.2686   10.7908 C.ar    1  UNL1       -0.0012
     32 C          59.7716   90.5526   10.2974 C.ar    1  UNL1       -0.0002
     33 C          59.3614   90.6856    8.8607 C.ar    1  UNL1        0.0016
     34 C          59.5492   89.5344    7.9175 C.ar    1  UNL1        0.0214
     35 C          59.2422   89.3722    6.4583 C.ar    1  UNL1        0.0721
     36 C          59.6505   87.9878    6.0499 C.ar    1  UNL1        0.0805
     37 N          60.2097   87.2945    7.2567 N.ar    1  UNL1       -0.3241
     38 C          60.7387   85.8916    7.3014 C.3     1  UNL1        0.1305
     39 C          60.1471   88.2504    8.4110 C.ar    1  UNL1        0.0577
     40 C          58.6338   90.4118    5.5643 C.2     1  UNL1        0.2506
     41 O          57.1550   90.6608    5.6018 O.2     1  UNL1       -0.2699
     42 N          59.5041   91.2025    4.6330 N.am    1  UNL1       -0.2746
     43 C          60.9906   91.0653    4.4856 C.3     1  UNL1        0.0951
     44 C          61.4460   92.0471    3.4470 C.3     1  UNL1        0.0376
     45 C          62.6461   92.5692    2.7141 C.3     1  UNL1        0.0204
     46 C          62.1827   93.6358    1.7666 C.3     1  UNL1        0.0722
     47 N          60.6963   93.7729    1.9140 N.3     1  UNL1       -0.2711
     48 C          59.8193   94.7248    1.1559 C.3     1  UNL1        0.0896
     49 C          60.2410   92.7911    2.9525 C.3     1  UNL1        0.0791
     50 C          59.0409   92.2690    3.6855 C.3     1  UNL1        0.1096
     51 C          64.7950   93.1099   12.2402 C.3     1  UNL1        0.1177
     52 C          65.8280   93.5077   11.2279 C.ar    1  UNL1       -0.0025
     53 C          65.8924   94.9243   10.7389 C.ar    1  UNL1       -0.0026
     54 C          66.9253   95.3221    9.7266 C.ar    1  UNL1       -0.0003
     55 C          67.8939   94.3033    9.2032 C.ar    1  UNL1       -0.0000
     56 C          67.8295   92.8866    9.6922 C.ar    1  UNL1       -0.0003
     57 C          66.7966   92.4888   10.7045 C.ar    1  UNL1       -0.0026
@<TRIPOS>BOND
     1    18    19    2
     2    19    17    1
     3    17     1    1
     4     1     2    1
     5     2     3    1
     6     3     4    2
     7     3     5   am
     8     5     6    1
     9     6    20    1
    10    20    21    1
    11    21    22   ar
    12    22    23   ar
    13    23    24   ar
    14    24    25    1
    15    24    26   ar
    16    26    27   ar
    17     6     7    1
    18     7     8    2
    19     7     9   am
    20     9    29    1
    21    29    30    1
    22    30    31   ar
    23    31    32   ar
    24    32    33   ar
    25    33    34   ar
    26    34    35   ar
    27    35    40    1
    28    40    41    2
    29    40    42   am
    30    42    43    1
    31    43    44    1
    32    44    45    1
    33    45    46    1
    34    46    47    1
    35    47    48    1
    36    47    49    1
    37    49    50    1
    38    35    36   ar
    39    36    37   ar
    40    37    38    1
    41    37    39   ar
    42     9    10    1
    43    11    10    1
    44    11    12    1
    45    12    13   am
    46    13    14    2
    47    13    15   am
    48    15    51    1
    49    51    52    1
    50    52    53   ar
    51    53    54   ar
    52    54    55   ar
    53    55    56   ar
    54    56    57   ar
    55    12     1    1
    56    57    52   ar
    57    11     5    1
    58    27    21   ar
    59    39    30   ar
    60    39    34   ar
    61    50    42    1
    62    49    44    1
    63    25    28    1
    64    15    16    1
