@<TRIPOS>MOLECULE
*****
 38 42 0 0 0
SMALL
GASTEIGER

@<TRIPOS>ATOM
      1 C          59.7791   93.5207   -1.3053 C.3     1  UNL1        0.0761
      2 C          60.9324   95.4552   -2.6007 C.ar    1  UNL1        0.1351
      3 C          62.0102   95.9382   -3.5252 C.ar    1  UNL1        0.0366
      4 C          63.0129   94.9696   -4.0791 C.ar    1  UNL1        0.0030
      5 C          64.0908   95.4526   -5.0037 C.ar    1  UNL1        0.0006
      6 C          65.0933   94.4840   -5.5575 C.ar    1  UNL1        0.0067
      7 C          65.0180   93.0325   -5.1867 C.ar    1  UNL1        0.0346
      8 BR         66.0207   92.0640   -5.7406 Br      1  UNL1       -0.0490
      9 C          63.9402   92.5496   -4.2621 C.ar    1  UNL1        0.0067
     10 C          62.9376   93.5181   -3.7083 C.ar    1  UNL1        0.0004
     11 C          61.8596   93.0351   -2.7837 C.ar    1  UNL1       -0.0009
     12 C          60.8571   94.0037   -2.2299 C.ar    1  UNL1        0.0181
     13 C          58.7592   96.8511   -2.8819 C.3     1  UNL1        0.2525
     14 O          59.9297   96.4237   -2.0468 O.3     1  UNL1       -0.4717
     15 C          58.3404   93.6070   -1.7208 C.ar    1  UNL1       -0.0160
     16 C          57.3487   94.3165   -0.8474 C.ar    1  UNL1       -0.0039
     17 C          55.9100   94.4028   -1.2629 C.ar    1  UNL1       -0.0006
     18 C          55.4630   93.7794   -2.5519 C.ar    1  UNL1       -0.0043
     19 C          56.4547   93.0698   -3.4255 C.ar    1  UNL1       -0.0222
     20 C          56.0077   92.4465   -4.7145 C.3     1  UNL1        0.0310
     21 C          57.8934   92.9836   -3.0099 C.ar    1  UNL1       -0.0081
     22 C          60.1399   92.9516    0.0348 C.3     1  UNL1        0.1187
     23 O          59.4975   91.6504   -0.3449 O.3     1  UNL1       -0.3819
     24 H          59.4185   91.0873    0.4410 H       1  UNL1        0.2107
     25 C          60.7822   94.2528    0.4145 C.ar    1  UNL1        0.0395
     26 C          59.9299   95.4271    0.7949 C.ar    1  UNL1        0.0012
     27 C          60.5723   96.7283    1.1746 C.ar    1  UNL1        0.0031
     28 C          62.0669   96.8553    1.1739 C.ar    1  UNL1        0.0402
     29 C          62.9192   95.6810    0.7936 C.ar    1  UNL1        0.1762
     30 C          62.2768   94.3797    0.4139 C.ar    1  UNL1        0.1746
     31 O          63.3670   93.4026    0.0873 O.3     1  UNL1       -0.4349
     32 C          64.6831   94.0998    0.2652 C.3     1  UNL1        0.4294
     33 O          64.4063   95.5080    0.7017 O.3     1  UNL1       -0.4346
     34 C          60.5007   92.3824    1.3749 C.3     1  UNL1        0.0492
     35 C          59.7054   92.7607    2.5891 C.3     1  UNL1        0.0750
     36 N          59.9408   92.0525    3.8904 N.3     1  UNL1       -0.2702
     37 C          61.3139   91.5589    4.2378 C.3     1  UNL1        0.0897
     38 C          58.8031   91.8382    4.8441 C.3     1  UNL1        0.0897
@<TRIPOS>BOND
     1    13    14    1
     2    14     2    1
     3     2     3   ar
     4     3     4   ar
     5     4     5   ar
     6     5     6   ar
     7     6     7   ar
     8     7     8    1
     9     7     9   ar
    10     9    10   ar
    11    10    11   ar
    12    11    12   ar
    13     1    12    1
    14     1    15    1
    15    15    16   ar
    16    16    17   ar
    17    17    18   ar
    18    18    19   ar
    19    19    20    1
    20    19    21   ar
    21     1    22    1
    22    22    23    1
    23    22    34    1
    24    34    35    1
    25    35    36    1
    26    36    37    1
    27    36    38    1
    28    22    25    1
    29    25    26   ar
    30    26    27   ar
    31    27    28   ar
    32    28    29   ar
    33    29    30   ar
    34    30    31    1
    35    31    32    1
    36    32    33    1
    37    12     2   ar
    38    21    15   ar
    39    30    25   ar
    40    10     4   ar
    41    33    29    1
    42    23    24    1
@<TRIPOS>MOLECULE
*****
 38 42 0 0 0
SMALL
GASTEIGER

@<TRIPOS>ATOM
      1 C          59.7088   94.5553   -3.1629 C.3     1  UNL1        0.0761
      2 C          58.9550   95.0678   -0.7300 C.ar    1  UNL1        0.1351
      3 C          59.0975   94.8500    0.7473 C.ar    1  UNL1        0.0366
      4 C          60.1364   93.9020    1.2689 C.ar    1  UNL1        0.0030
      5 C          60.2789   93.6843    2.7461 C.ar    1  UNL1        0.0006
      6 C          61.3177   92.7363    3.2677 C.ar    1  UNL1        0.0067
      7 C          62.2141   92.0060    2.3120 C.ar    1  UNL1        0.0346
      8 BR         63.2530   91.0580    2.8336 Br      1  UNL1       -0.0490
      9 C          62.0716   92.2237    0.8348 C.ar    1  UNL1        0.0067
     10 C          61.0327   93.1717    0.3132 C.ar    1  UNL1        0.0004
     11 C          60.8902   93.3895   -1.1641 C.ar    1  UNL1       -0.0009
     12 C          59.8514   94.3375   -1.6856 C.ar    1  UNL1        0.0181
     13 C          56.4931   95.5638   -1.3957 C.3     1  UNL1        0.2525
     14 O          57.9161   96.0158   -1.2516 O.3     1  UNL1       -0.4717
     15 C          58.7861   93.6851   -3.9637 C.ar    1  UNL1       -0.0160
     16 C          58.7354   93.8199   -5.4567 C.ar    1  UNL1       -0.0039
     17 C          57.8127   92.9497   -6.2575 C.ar    1  UNL1       -0.0006
     18 C          56.9407   91.9446   -5.5653 C.ar    1  UNL1       -0.0043
     19 C          56.9913   91.8097   -4.0722 C.ar    1  UNL1       -0.0222
     20 C          56.1192   90.8046   -3.3799 C.3     1  UNL1        0.0310
     21 C          57.9140   92.6800   -3.2714 C.ar    1  UNL1       -0.0081
     22 C          60.4890   95.6433   -3.8393 C.3     1  UNL1        0.1187
     23 O          59.2183   96.4015   -4.0853 O.3     1  UNL1       -0.3819
     24 H          59.3913   97.1316   -4.7002 H       1  UNL1        0.2107
     25 C          61.7596   94.8851   -3.5933 C.ar    1  UNL1        0.0395
     26 C          62.0432   93.6277   -4.3605 C.ar    1  UNL1        0.0012
     27 C          63.3139   92.8695   -4.1145 C.ar    1  UNL1        0.0031
     28 C          64.3010   93.3687   -3.1014 C.ar    1  UNL1        0.0402
     29 C          64.0174   94.6260   -2.3342 C.ar    1  UNL1        0.1762
     30 C          62.7467   95.3843   -2.5802 C.ar    1  UNL1        0.1746
     31 O          62.7403   96.5831   -1.6786 O.3     1  UNL1       -0.4349
     32 C          64.0070   96.5658   -0.8755 C.3     1  UNL1        0.4294
     33 O          64.7963   95.3563   -1.2806 O.3     1  UNL1       -0.4346
     34 C          61.2691   96.7313   -4.5158 C.3     1  UNL1        0.0492
     35 C          61.5276   96.6624   -5.9917 C.3     1  UNL1        0.0750
     36 N          62.8712   96.2285   -6.4984 N.3     1  UNL1       -0.2702
     37 C          62.9674   95.1724   -7.5592 C.3     1  UNL1        0.0897
     38 C          64.1184   96.8509   -5.9443 C.3     1  UNL1        0.0897
@<TRIPOS>BOND
     1    13    14    1
     2    14     2    1
     3     2     3   ar
     4     3     4   ar
     5     4     5   ar
     6     5     6   ar
     7     6     7   ar
     8     7     8    1
     9     7     9   ar
    10     9    10   ar
    11    10    11   ar
    12    11    12   ar
    13     1    12    1
    14     1    15    1
    15    15    16   ar
    16    16    17   ar
    17    17    18   ar
    18    18    19   ar
    19    19    20    1
    20    19    21   ar
    21     1    22    1
    22    22    23    1
    23    22    34    1
    24    34    35    1
    25    35    36    1
    26    36    37    1
    27    36    38    1
    28    22    25    1
    29    25    26   ar
    30    26    27   ar
    31    27    28   ar
    32    28    29   ar
    33    29    30   ar
    34    30    31    1
    35    31    32    1
    36    32    33    1
    37    12     2   ar
    38    21    15   ar
    39    30    25   ar
    40    10     4   ar
    41    33    29    1
    42    23    24    1
@<TRIPOS>MOLECULE
*****
 38 42 0 0 0
SMALL
GASTEIGER

@<TRIPOS>ATOM
      1 C          60.4700   95.0248   -2.1366 C.3     1  UNL1        0.0761
      2 C          60.7324   95.6017   -4.6562 C.ar    1  UNL1        0.1351
      3 C          61.3973   95.3674   -5.9801 C.ar    1  UNL1        0.0366
      4 C          62.4651   94.3216   -6.1085 C.ar    1  UNL1        0.0030
      5 C          63.1300   94.0872   -7.4324 C.ar    1  UNL1        0.0006
      6 C          64.1977   93.0415   -7.5607 C.ar    1  UNL1        0.0067
      7 C          64.6004   92.2301   -6.3651 C.ar    1  UNL1        0.0346
      8 BR         65.6681   91.1844   -6.4935 Br      1  UNL1       -0.0490
      9 C          63.9354   92.4645   -5.0412 C.ar    1  UNL1        0.0067
     10 C          62.8677   93.5102   -4.9129 C.ar    1  UNL1        0.0004
     11 C          62.2027   93.7446   -3.5889 C.ar    1  UNL1       -0.0009
     12 C          61.1350   94.7904   -3.4606 C.ar    1  UNL1        0.0181
     13 C          58.3098   96.4137   -5.1277 C.3     1  UNL1        0.2525
     14 O          59.6646   96.6475   -4.5278 O.3     1  UNL1       -0.4717
     15 C          59.0225   94.6773   -1.9525 C.ar    1  UNL1       -0.0160
     16 C          58.1190   95.6048   -1.1951 C.ar    1  UNL1       -0.0039
     17 C          56.6715   95.2574   -1.0110 C.ar    1  UNL1       -0.0006
     18 C          56.1274   93.9825   -1.5842 C.ar    1  UNL1       -0.0043
     19 C          57.0308   93.0550   -2.3416 C.ar    1  UNL1       -0.0222
     20 C          56.4867   91.7801   -2.9148 C.3     1  UNL1        0.0310
     21 C          58.4784   93.4024   -2.5257 C.ar    1  UNL1       -0.0081
     22 C          61.2525   95.6066   -0.9968 C.3     1  UNL1        0.1187
     23 O          61.4856   96.8554   -1.7943 O.3     1  UNL1       -0.3819
     24 H          62.1542   97.4015   -1.3519 H       1  UNL1        0.2107
     25 C          61.0194   94.3578   -0.1993 C.ar    1  UNL1        0.0395
     26 C          61.2967   93.0156   -0.8092 C.ar    1  UNL1        0.0012
     27 C          61.0636   91.7668   -0.0117 C.ar    1  UNL1        0.0031
     28 C          60.5532   91.8600    1.3957 C.ar    1  UNL1        0.0402
     29 C          60.2760   93.2020    2.0056 C.ar    1  UNL1        0.1762
     30 C          60.5091   94.4510    1.2081 C.ar    1  UNL1        0.1746
     31 O          60.1487   95.6250    2.0694 O.3     1  UNL1       -0.4349
     32 C          59.6928   95.1017    3.3992 C.3     1  UNL1        0.4294
     33 O          59.7715   93.6042    3.3598 O.3     1  UNL1       -0.4346
     34 C          62.0350   96.1884    0.1430 C.3     1  UNL1        0.0492
     35 C          63.4007   96.7597   -0.0992 C.3     1  UNL1        0.0750
     36 N          64.4615   95.9189   -0.7456 N.3     1  UNL1       -0.2702
     37 C          65.2408   96.4581   -1.9083 C.3     1  UNL1        0.0897
     38 C          64.7430   94.5390   -0.2293 C.3     1  UNL1        0.0897
@<TRIPOS>BOND
     1    13    14    1
     2    14     2    1
     3     2     3   ar
     4     3     4   ar
     5     4     5   ar
     6     5     6   ar
     7     6     7   ar
     8     7     8    1
     9     7     9   ar
    10     9    10   ar
    11    10    11   ar
    12    11    12   ar
    13     1    12    1
    14     1    15    1
    15    15    16   ar
    16    16    17   ar
    17    17    18   ar
    18    18    19   ar
    19    19    20    1
    20    19    21   ar
    21     1    22    1
    22    22    23    1
    23    22    34    1
    24    34    35    1
    25    35    36    1
    26    36    37    1
    27    36    38    1
    28    22    25    1
    29    25    26   ar
    30    26    27   ar
    31    27    28   ar
    32    28    29   ar
    33    29    30   ar
    34    30    31    1
    35    31    32    1
    36    32    33    1
    37    12     2   ar
    38    21    15   ar
    39    30    25   ar
    40    10     4   ar
    41    33    29    1
    42    23    24    1
@<TRIPOS>MOLECULE
*****
 38 42 0 0 0
SMALL
GASTEIGER

@<TRIPOS>ATOM
      1 C          61.7031   88.1036    9.9852 C.3     1  UNL1        0.0761
      2 C          62.6966   85.7651    9.4427 C.ar    1  UNL1        0.1351
      3 C          63.2768   84.4612    9.9044 C.ar    1  UNL1        0.0366
      4 C          63.4435   84.1918   11.3707 C.ar    1  UNL1        0.0030
      5 C          64.0236   82.8879   11.8324 C.ar    1  UNL1        0.0006
      6 C          64.1903   82.6186   13.2986 C.ar    1  UNL1        0.0067
      7 C          63.7769   83.6531   14.3029 C.ar    1  UNL1        0.0346
      8 BR         63.9436   83.3837   15.7692 Br      1  UNL1       -0.0490
      9 C          63.1968   84.9570   13.8412 C.ar    1  UNL1        0.0067
     10 C          63.0301   85.2264   12.3750 C.ar    1  UNL1        0.0004
     11 C          62.4499   86.5303   11.9132 C.ar    1  UNL1       -0.0009
     12 C          62.2832   86.7997   10.4471 C.ar    1  UNL1        0.0181
     13 C          62.2617   84.9010    7.0314 C.3     1  UNL1        0.2525
     14 O          62.5299   86.0345    7.9765 O.3     1  UNL1       -0.4717
     15 C          60.6044   88.1159    8.9640 C.ar    1  UNL1       -0.0160
     16 C          59.6364   86.9725    8.8900 C.ar    1  UNL1       -0.0039
     17 C          58.5378   86.9847    7.8688 C.ar    1  UNL1       -0.0006
     18 C          58.4072   88.1404    6.9216 C.ar    1  UNL1       -0.0043
     19 C          59.3752   89.2839    6.9956 C.ar    1  UNL1       -0.0222
     20 C          59.2446   90.4396    6.0483 C.3     1  UNL1        0.0310
     21 C          60.4739   89.2717    8.0168 C.ar    1  UNL1       -0.0081
     22 C          62.2215   89.3952   10.5446 C.3     1  UNL1        0.1187
     23 O          63.2172   89.4800    9.4260 O.3     1  UNL1       -0.3819
     24 H          63.8608   90.1798    9.6183 H       1  UNL1        0.2107
     25 C          61.2258   89.3104   11.6632 C.ar    1  UNL1        0.0395
     26 C          59.7665   89.1459   11.3575 C.ar    1  UNL1        0.0012
     27 C          58.7708   89.0612   12.4762 C.ar    1  UNL1        0.0031
     28 C          59.2344   89.1409   13.9005 C.ar    1  UNL1        0.0402
     29 C          60.6936   89.3053   14.2062 C.ar    1  UNL1        0.1762
     30 C          61.6894   89.3901   13.0876 C.ar    1  UNL1        0.1746
     31 O          63.0529   89.5504   13.6919 O.3     1  UNL1       -0.4349
     32 C          62.8998   89.5647   15.1840 C.3     1  UNL1        0.4294
     33 O          61.4417   89.4132   15.5019 O.3     1  UNL1       -0.4346
     34 C          62.7400   90.6868   11.1040 C.3     1  UNL1        0.0492
     35 C          63.7805   91.4648   10.3543 C.3     1  UNL1        0.0750
     36 N          64.8501   92.2026   11.1039 N.3     1  UNL1       -0.2702
     37 C          65.7788   93.1252   10.3715 C.3     1  UNL1        0.0897
     38 C          64.9910   92.0176   12.5857 C.3     1  UNL1        0.0897
@<TRIPOS>BOND
     1    13    14    1
     2    14     2    1
     3     2     3   ar
     4     3     4   ar
     5     4     5   ar
     6     5     6   ar
     7     6     7   ar
     8     7     8    1
     9     7     9   ar
    10     9    10   ar
    11    10    11   ar
    12    11    12   ar
    13     1    12    1
    14     1    15    1
    15    15    16   ar
    16    16    17   ar
    17    17    18   ar
    18    18    19   ar
    19    19    20    1
    20    19    21   ar
    21     1    22    1
    22    22    23    1
    23    22    34    1
    24    34    35    1
    25    35    36    1
    26    36    37    1
    27    36    38    1
    28    22    25    1
    29    25    26   ar
    30    26    27   ar
    31    27    28   ar
    32    28    29   ar
    33    29    30   ar
    34    30    31    1
    35    31    32    1
    36    32    33    1
    37    12     2   ar
    38    21    15   ar
    39    30    25   ar
    40    10     4   ar
    41    33    29    1
    42    23    24    1
@<TRIPOS>MOLECULE
*****
 38 42 0 0 0
SMALL
GASTEIGER

@<TRIPOS>ATOM
      1 C          63.1120   88.8022   12.0736 C.3     1  UNL1        0.0761
      2 C          60.7427   88.8182   11.0076 C.ar    1  UNL1        0.1351
      3 C          59.7790   88.3115    9.9758 C.ar    1  UNL1        0.0366
      4 C          60.2208   87.2822    8.9781 C.ar    1  UNL1        0.0030
      5 C          59.2571   86.7756    7.9464 C.ar    1  UNL1        0.0006
      6 C          59.6990   85.7463    6.9487 C.ar    1  UNL1        0.0067
      7 C          61.1046   85.2237    6.9829 C.ar    1  UNL1        0.0346
      8 BR         61.5465   84.1944    5.9852 Br      1  UNL1       -0.0490
      9 C          62.0683   85.7303    8.0146 C.ar    1  UNL1        0.0067
     10 C          61.6264   86.7596    9.0123 C.ar    1  UNL1        0.0004
     11 C          62.5901   87.2663   10.0441 C.ar    1  UNL1       -0.0009
     12 C          62.1482   88.2955   11.0417 C.ar    1  UNL1        0.0181
     13 C          59.1921   90.7976   11.6616 C.3     1  UNL1        0.2525
     14 O          60.3008   89.8475   12.0053 O.3     1  UNL1       -0.4717
     15 C          63.6640   87.8665   13.1078 C.ar    1  UNL1       -0.0160
     16 C          64.6517   88.3658   14.1201 C.ar    1  UNL1       -0.0039
     17 C          65.2037   87.4301   15.1544 C.ar    1  UNL1       -0.0006
     18 C          64.7679   85.9950   15.1763 C.ar    1  UNL1       -0.0043
     19 C          63.7801   85.4955   14.1639 C.ar    1  UNL1       -0.0222
     20 C          63.3443   84.0605   14.1859 C.3     1  UNL1        0.0310
     21 C          63.2281   86.4313   13.1297 C.ar    1  UNL1       -0.0081
     22 C          63.5236   90.2446   12.0711 C.3     1  UNL1        0.1187
     23 O          63.6747   90.1989   10.5795 O.3     1  UNL1       -0.3819
     24 H          64.1249   91.0025   10.2753 H       1  UNL1        0.2107
     25 C          63.3726   90.2902   13.5627 C.ar    1  UNL1        0.0395
     26 C          62.2531   89.5443   14.2264 C.ar    1  UNL1        0.0012
     27 C          62.1020   89.5900   15.7181 C.ar    1  UNL1        0.0031
     28 C          63.0705   90.3815   16.5461 C.ar    1  UNL1        0.0402
     29 C          64.1899   91.1274   15.8825 C.ar    1  UNL1        0.1762
     30 C          64.3410   91.0817   14.3908 C.ar    1  UNL1        0.1746
     31 O          65.5342   91.9118   14.0201 O.3     1  UNL1       -0.4349
     32 C          66.1205   92.4705   15.2827 C.3     1  UNL1        0.4294
     33 O          65.2897   91.9856   16.4337 O.3     1  UNL1       -0.4346
     34 C          63.9353   91.6869   12.0686 C.3     1  UNL1        0.0492
     35 C          64.5530   92.2885   10.8412 C.3     1  UNL1        0.0750
     36 N          65.8714   92.9977   10.9357 N.3     1  UNL1       -0.2702
     37 C          67.1082   92.3593   10.3764 C.3     1  UNL1        0.0897
     38 C          65.9531   94.3452   11.5896 C.3     1  UNL1        0.0897
@<TRIPOS>BOND
     1    13    14    1
     2    14     2    1
     3     2     3   ar
     4     3     4   ar
     5     4     5   ar
     6     5     6   ar
     7     6     7   ar
     8     7     8    1
     9     7     9   ar
    10     9    10   ar
    11    10    11   ar
    12    11    12   ar
    13     1    12    1
    14     1    15    1
    15    15    16   ar
    16    16    17   ar
    17    17    18   ar
    18    18    19   ar
    19    19    20    1
    20    19    21   ar
    21     1    22    1
    22    22    23    1
    23    22    34    1
    24    34    35    1
    25    35    36    1
    26    36    37    1
    27    36    38    1
    28    22    25    1
    29    25    26   ar
    30    26    27   ar
    31    27    28   ar
    32    28    29   ar
    33    29    30   ar
    34    30    31    1
    35    31    32    1
    36    32    33    1
    37    12     2   ar
    38    21    15   ar
    39    30    25   ar
    40    10     4   ar
    41    33    29    1
    42    23    24    1
@<TRIPOS>MOLECULE
*****
 38 42 0 0 0
SMALL
GASTEIGER

@<TRIPOS>ATOM
      1 C          61.9569   88.6246   11.1346 C.3     1  UNL1        0.0761
      2 C          63.6385   89.4832   12.9193 C.ar    1  UNL1        0.1351
      3 C          64.6644   90.4838   13.3624 C.ar    1  UNL1        0.0366
      4 C          65.0346   91.6265   12.4639 C.ar    1  UNL1        0.0030
      5 C          66.0605   92.6270   12.9070 C.ar    1  UNL1        0.0006
      6 C          66.4307   93.7696   12.0085 C.ar    1  UNL1        0.0067
      7 C          65.7751   93.9116   10.6669 C.ar    1  UNL1        0.0346
      8 BR         66.1453   95.0543    9.7683 Br      1  UNL1       -0.0490
      9 C          64.7492   92.9111   10.2238 C.ar    1  UNL1        0.0067
     10 C          64.3790   91.7685   11.1223 C.ar    1  UNL1        0.0004
     11 C          63.3530   90.7678   10.6792 C.ar    1  UNL1       -0.0009
     12 C          62.9828   89.6253   11.5777 C.ar    1  UNL1        0.0181
     13 C          64.3347   87.6047   14.5736 C.3     1  UNL1        0.2525
     14 O          63.2682   88.3406   13.8179 O.3     1  UNL1       -0.4717
     15 C          62.3914   87.2996   10.5819 C.ar    1  UNL1       -0.0160
     16 C          62.8608   87.1972    9.1610 C.ar    1  UNL1       -0.0039
     17 C          63.2953   85.8721    8.6083 C.ar    1  UNL1       -0.0006
     18 C          63.2604   84.6495    9.4765 C.ar    1  UNL1       -0.0043
     19 C          62.7910   84.7519   10.8976 C.ar    1  UNL1       -0.0222
     20 C          62.7561   83.5292   11.7658 C.3     1  UNL1        0.0310
     21 C          62.3565   86.0769   11.4503 C.ar    1  UNL1       -0.0081
     22 C          60.4965   88.9490   11.2443 C.3     1  UNL1        0.1187
     23 O          60.7591   89.7019   12.5148 O.3     1  UNL1       -0.3819
     24 H          59.9164   89.9079   12.9486 H       1  UNL1        0.2107
     25 C          60.2339   88.1962    9.9738 C.ar    1  UNL1        0.0395
     26 C          60.1600   86.6981    9.9912 C.ar    1  UNL1        0.0012
     27 C          59.8974   85.9452    8.7207 C.ar    1  UNL1        0.0031
     28 C          59.7086   86.6905    7.4327 C.ar    1  UNL1        0.0402
     29 C          59.7825   88.1885    7.4152 C.ar    1  UNL1        0.1762
     30 C          60.0451   88.9414    8.6857 C.ar    1  UNL1        0.1746
     31 O          60.0632   90.4058    8.3615 O.3     1  UNL1       -0.4349
     32 C          59.8117   90.5580    6.8906 C.3     1  UNL1        0.4294
     33 O          59.6382   89.1877    6.3057 O.3     1  UNL1       -0.4346
     34 C          59.0362   89.2735   11.3539 C.3     1  UNL1        0.0492
     35 C          58.4666   89.7350   12.6625 C.3     1  UNL1        0.0750
     36 N          58.0024   88.7300   13.6747 N.3     1  UNL1       -0.2702
     37 C          56.7071   88.0019   13.4693 C.3     1  UNL1        0.0897
     38 C          58.8336   88.4529   14.8922 C.3     1  UNL1        0.0897
@<TRIPOS>BOND
     1    13    14    1
     2    14     2    1
     3     2     3   ar
     4     3     4   ar
     5     4     5   ar
     6     5     6   ar
     7     6     7   ar
     8     7     8    1
     9     7     9   ar
    10     9    10   ar
    11    10    11   ar
    12    11    12   ar
    13     1    12    1
    14     1    15    1
    15    15    16   ar
    16    16    17   ar
    17    17    18   ar
    18    18    19   ar
    19    19    20    1
    20    19    21   ar
    21     1    22    1
    22    22    23    1
    23    22    34    1
    24    34    35    1
    25    35    36    1
    26    36    37    1
    27    36    38    1
    28    22    25    1
    29    25    26   ar
    30    26    27   ar
    31    27    28   ar
    32    28    29   ar
    33    29    30   ar
    34    30    31    1
    35    31    32    1
    36    32    33    1
    37    12     2   ar
    38    21    15   ar
    39    30    25   ar
    40    10     4   ar
    41    33    29    1
    42    23    24    1
@<TRIPOS>MOLECULE
*****
 38 42 0 0 0
SMALL
GASTEIGER

@<TRIPOS>ATOM
      1 C          62.9065   89.6767   12.7397 C.3     1  UNL1        0.0761
      2 C          64.2189   91.6145   13.8678 C.ar    1  UNL1        0.1351
      3 C          65.1423   92.7918   13.7629 C.ar    1  UNL1        0.0366
      4 C          65.6771   93.2087   12.4248 C.ar    1  UNL1        0.0030
      5 C          66.6006   94.3860   12.3198 C.ar    1  UNL1        0.0006
      6 C          67.1352   94.8028   10.9818 C.ar    1  UNL1        0.0067
      7 C          66.7464   94.0423    9.7488 C.ar    1  UNL1        0.0346
      8 BR         67.2811   94.4592    8.4107 Br      1  UNL1       -0.0490
      9 C          65.8229   92.8650    9.8537 C.ar    1  UNL1        0.0067
     10 C          65.2882   92.4482   11.1917 C.ar    1  UNL1        0.0004
     11 C          64.3647   91.2709   11.2967 C.ar    1  UNL1       -0.0009
     12 C          63.8300   90.8540   12.6347 C.ar    1  UNL1        0.0181
     13 C          64.2445   91.8024   16.4590 C.3     1  UNL1        0.2525
     14 O          63.6841   91.1976   15.2059 O.3     1  UNL1       -0.4717
     15 C          61.4585   89.8246   12.3770 C.ar    1  UNL1       -0.0160
     16 C          61.0591   90.7019   11.2278 C.ar    1  UNL1       -0.0039
     17 C          59.6112   90.8499   10.8650 C.ar    1  UNL1       -0.0006
     18 C          58.5627   90.1204   11.6514 C.ar    1  UNL1       -0.0043
     19 C          58.9621   89.2430   12.8007 C.ar    1  UNL1       -0.0222
     20 C          57.9135   88.5136   13.5871 C.3     1  UNL1        0.0310
     21 C          60.4100   89.0951   13.1635 C.ar    1  UNL1       -0.0081
     22 C          63.4309   88.3515   13.2075 C.3     1  UNL1        0.1187
     23 O          63.8760   88.9817   14.4938 O.3     1  UNL1       -0.3819
     24 H          64.4449   88.3624   14.9773 H       1  UNL1        0.2107
     25 C          62.9857   87.7213   11.9212 C.ar    1  UNL1        0.0395
     26 C          62.7769   88.5708   10.7027 C.ar    1  UNL1        0.0012
     27 C          62.3317   87.9406    9.4163 C.ar    1  UNL1        0.0031
     28 C          62.0953   86.4609    9.3485 C.ar    1  UNL1        0.0402
     29 C          62.3041   85.6114   10.5670 C.ar    1  UNL1        0.1762
     30 C          62.7493   86.2416   11.8534 C.ar    1  UNL1        0.1746
     31 O          62.8718   85.1574   12.8826 O.3     1  UNL1       -0.4349
     32 C          62.5023   83.8571   12.2325 C.3     1  UNL1        0.4294
     33 O          62.1514   84.1377   10.8013 O.3     1  UNL1       -0.4346
     34 C          63.9553   87.0263   13.6753 C.3     1  UNL1        0.0492
     35 C          64.3943   86.8537   15.0991 C.3     1  UNL1        0.0750
     36 N          63.4145   86.3872   16.1348 N.3     1  UNL1       -0.2702
     37 C          62.8948   84.9806   16.0958 C.3     1  UNL1        0.0897
     38 C          62.9544   87.3273   17.2093 C.3     1  UNL1        0.0897
@<TRIPOS>BOND
     1    13    14    1
     2    14     2    1
     3     2     3   ar
     4     3     4   ar
     5     4     5   ar
     6     5     6   ar
     7     6     7   ar
     8     7     8    1
     9     7     9   ar
    10     9    10   ar
    11    10    11   ar
    12    11    12   ar
    13     1    12    1
    14     1    15    1
    15    15    16   ar
    16    16    17   ar
    17    17    18   ar
    18    18    19   ar
    19    19    20    1
    20    19    21   ar
    21     1    22    1
    22    22    23    1
    23    22    34    1
    24    34    35    1
    25    35    36    1
    26    36    37    1
    27    36    38    1
    28    22    25    1
    29    25    26   ar
    30    26    27   ar
    31    27    28   ar
    32    28    29   ar
    33    29    30   ar
    34    30    31    1
    35    31    32    1
    36    32    33    1
    37    12     2   ar
    38    21    15   ar
    39    30    25   ar
    40    10     4   ar
    41    33    29    1
    42    23    24    1
@<TRIPOS>MOLECULE
*****
 38 42 0 0 0
SMALL
GASTEIGER

@<TRIPOS>ATOM
      1 C          62.3170   88.8037   11.6963 C.3     1  UNL1        0.0761
      2 C          62.3345   87.0268    9.8009 C.ar    1  UNL1        0.1351
      3 C          62.5459   85.6125    9.3481 C.ar    1  UNL1        0.0366
      4 C          62.9512   84.5607   10.3378 C.ar    1  UNL1        0.0030
      5 C          63.1626   83.1464    9.8850 C.ar    1  UNL1        0.0006
      6 C          63.5680   82.0947   10.8747 C.ar    1  UNL1        0.0067
      7 C          63.7619   82.4573   12.3172 C.ar    1  UNL1        0.0346
      8 BR         64.1673   81.4055   13.3069 Br      1  UNL1       -0.0490
      9 C          63.5505   83.8715   12.7700 C.ar    1  UNL1        0.0067
     10 C          63.1452   84.9233   11.7803 C.ar    1  UNL1        0.0004
     11 C          62.9338   86.3376   12.2332 C.ar    1  UNL1       -0.0009
     12 C          62.5284   87.3893   11.2435 C.ar    1  UNL1        0.0181
     13 C          60.4826   88.2571    8.4567 C.3     1  UNL1        0.2525
     14 O          61.9291   88.0786    8.8112 O.3     1  UNL1       -0.4717
     15 C          60.9253   89.3403   11.8548 C.ar    1  UNL1       -0.0160
     16 C          60.5662   90.6766   11.2756 C.ar    1  UNL1       -0.0039
     17 C          59.1745   91.2132   11.4341 C.ar    1  UNL1       -0.0006
     18 C          58.1418   90.4136   12.1718 C.ar    1  UNL1       -0.0043
     19 C          58.5009   89.0773   12.7510 C.ar    1  UNL1       -0.0222
     20 C          57.4682   88.2777   13.4887 C.3     1  UNL1        0.0310
     21 C          59.8926   88.5407   12.5925 C.ar    1  UNL1       -0.0081
     22 C          63.4973   89.6813   11.9906 C.3     1  UNL1        0.1187
     23 O          63.4161   90.2545   10.6068 O.3     1  UNL1       -0.3819
     24 H          64.2145   90.7745   10.4249 H       1  UNL1        0.2107
     25 C          63.5785   89.1081   13.3743 C.ar    1  UNL1        0.0395
     26 C          63.7387   87.6289   13.5652 C.ar    1  UNL1        0.0012
     27 C          63.8200   87.0557   14.9489 C.ar    1  UNL1        0.0031
     28 C          63.7409   87.9616   16.1418 C.ar    1  UNL1        0.0402
     29 C          63.5807   89.4407   15.9510 C.ar    1  UNL1        0.1762
     30 C          63.4995   90.0140   14.5672 C.ar    1  UNL1        0.1746
     31 O          63.3430   91.5008   14.6899 O.3     1  UNL1       -0.4349
     32 C          63.3276   91.8464   16.1494 C.3     1  UNL1        0.4294
     33 O          63.4745   90.5732   16.9288 O.3     1  UNL1       -0.4346
     34 C          64.6776   90.5590   12.2849 C.3     1  UNL1        0.0492
     35 C          64.8071   91.8926   11.6107 C.3     1  UNL1        0.0750
     36 N          65.7884   92.9024   12.1281 N.3     1  UNL1       -0.2702
     37 C          65.9702   94.2073   11.4110 C.3     1  UNL1        0.0897
     38 C          66.5878   92.6072   13.3625 C.3     1  UNL1        0.0897
@<TRIPOS>BOND
     1    13    14    1
     2    14     2    1
     3     2     3   ar
     4     3     4   ar
     5     4     5   ar
     6     5     6   ar
     7     6     7   ar
     8     7     8    1
     9     7     9   ar
    10     9    10   ar
    11    10    11   ar
    12    11    12   ar
    13     1    12    1
    14     1    15    1
    15    15    16   ar
    16    16    17   ar
    17    17    18   ar
    18    18    19   ar
    19    19    20    1
    20    19    21   ar
    21     1    22    1
    22    22    23    1
    23    22    34    1
    24    34    35    1
    25    35    36    1
    26    36    37    1
    27    36    38    1
    28    22    25    1
    29    25    26   ar
    30    26    27   ar
    31    27    28   ar
    32    28    29   ar
    33    29    30   ar
    34    30    31    1
    35    31    32    1
    36    32    33    1
    37    12     2   ar
    38    21    15   ar
    39    30    25   ar
    40    10     4   ar
    41    33    29    1
    42    23    24    1
