@<TRIPOS>MOLECULE
*****
 36 39 0 0 0
SMALL
GASTEIGER

@<TRIPOS>ATOM
      1 N          61.6576   87.4345   11.2848 N.ar    1  UNL1       -0.2459
      2 C          61.9262   88.3626   10.1374 C.ar    1  UNL1        0.1116
      3 C          60.6058   88.8173    9.5900 C.ar    1  UNL1        0.0908
      4 C          59.5210   88.1703   10.3991 C.ar    1  UNL1        0.1363
      5 N          60.1711   87.3157   11.4465 N.ar    1  UNL1       -0.1661
      6 N          60.4053   89.7545    8.4361 N.am    1  UNL1       -0.2762
      7 C          59.5505   89.3419    7.2746 C.2     1  UNL1        0.2754
      8 O          58.8961   87.9921    7.2671 O.2     1  UNL1       -0.2675
      9 H          60.8347   90.6403    8.4411 H       1  UNL1        0.1553
     10 C          59.3500   90.2790    6.1207 C.ar    1  UNL1        0.1872
     11 N          58.0311   90.7759    5.6073 N.ar    1  UNL1       -0.1361
     12 N          58.2992   91.6878    4.4469 N.ar    1  UNL1       -0.1391
     13 C          59.7838   91.7546    4.2432 C.ar    1  UNL1        0.1514
     14 S          60.4333   90.8839    5.2777 S.2     1  UNL1       -0.0395
     15 C          60.4943   92.5521    3.1899 C.ar    1  UNL1        0.1068
     16 C          61.9136   92.2247    2.8313 C.ar    1  UNL1        0.0213
     17 C          62.6240   93.0222    1.7781 C.ar    1  UNL1        0.0032
     18 C          61.9152   94.1470    1.0834 C.ar    1  UNL1        0.0207
     19 C          60.4960   94.4743    1.4420 C.ar    1  UNL1        0.0989
     20 N          59.7855   93.6768    2.4953 N.ar    1  UNL1       -0.2417
     21 C          63.7759   87.5467   12.7848 C.3     1  UNL1        0.0312
     22 C          62.6936   86.7462   12.1232 C.3     1  UNL1        0.1274
     23 C          62.6472   85.2573   12.3000 C.ar    1  UNL1        0.0038
     24 C          62.5573   84.6679   13.6764 C.ar    1  UNL1       -0.0025
     25 C          62.5109   83.1791   13.8531 C.ar    1  UNL1        0.0036
     26 C          62.5545   82.2797   12.6534 C.ar    1  UNL1        0.0714
     27 C          62.6444   82.8691   11.2770 C.ar    1  UNL1        0.0074
     28 C          62.6908   84.3579   11.1003 C.ar    1  UNL1        0.0692
     29 C          62.5081   80.7908   12.8302 C.3     1  UNL1        0.4186
     30 F          62.4617   79.3020   13.0069 F       1  UNL1       -0.1659
     31 F          62.1250   80.9735   14.2689 F       1  UNL1       -0.1659
     32 F          62.8912   80.6081   11.3915 F       1  UNL1       -0.1659
     33 C          62.7807   84.9474    9.7239 C.3     1  UNL1        0.4183
     34 F          62.8707   85.5368    8.3475 F       1  UNL1       -0.1659
     35 F          64.2527   84.6605    9.6972 F       1  UNL1       -0.1659
     36 F          61.3087   85.2343    9.7505 F       1  UNL1       -0.1659
@<TRIPOS>BOND
     1    22    21    1
     2    22    23    1
     3    23    24   ar
     4    24    25   ar
     5    25    26   ar
     6    26    29    1
     7    29    30    1
     8    29    31    1
     9    29    32    1
    10    26    27   ar
    11    27    28   ar
    12    28    33    1
    13    33    34    1
    14    33    35    1
    15    33    36    1
    16    22     1    1
    17     1     2   ar
    18     2     3   ar
    19     3     6    1
    20     6     7   am
    21     7     8    2
    22     7    10    1
    23    10    11   ar
    24    11    12   ar
    25    12    13   ar
    26    13    15    1
    27    15    16   ar
    28    16    17   ar
    29    17    18   ar
    30    18    19   ar
    31    19    20   ar
    32    13    14   ar
    33     3     4   ar
    34     4     5   ar
    35    28    23   ar
    36     5     1   ar
    37    14    10   ar
    38    20    15   ar
    39     6     9    1
@<TRIPOS>MOLECULE
*****
 36 39 0 0 0
SMALL
GASTEIGER

@<TRIPOS>ATOM
      1 N          64.4643   90.4478   15.4219 N.ar    1  UNL1       -0.2459
      2 C          64.5945   89.2065   14.5898 C.ar    1  UNL1        0.1116
      3 C          63.6842   88.1636   15.1674 C.ar    1  UNL1        0.0908
      4 C          62.9913   88.7603   16.3565 C.ar    1  UNL1        0.1363
      5 N          63.4734   90.1720   16.5137 N.ar    1  UNL1       -0.1661
      6 N          63.4992   86.7689   14.6473 N.am    1  UNL1       -0.2762
      7 C          63.3549   85.6241   15.6056 C.2     1  UNL1        0.2754
      8 O          63.3956   85.8739   17.0841 O.2     1  UNL1       -0.2675
      9 H          63.4725   86.6049   13.6769 H       1  UNL1        0.1553
     10 C          63.1700   84.2293   15.0855 C.ar    1  UNL1        0.1872
     11 N          62.8364   83.0191   15.9065 N.ar    1  UNL1       -0.1361
     12 N          62.7464   81.8418   14.9814 N.ar    1  UNL1       -0.1391
     13 C          63.0244   82.3244   13.5886 C.ar    1  UNL1        0.1514
     14 S          63.2862   83.8000   13.6529 S.2     1  UNL1       -0.0395
     15 C          63.0382   81.4797   12.3491 C.ar    1  UNL1        0.1068
     16 C          63.4605   82.0767   11.0394 C.ar    1  UNL1        0.0213
     17 C          63.4743   81.2320    9.7999 C.ar    1  UNL1        0.0032
     18 C          63.0657   79.7903    9.8702 C.ar    1  UNL1        0.0207
     19 C          62.6435   79.1934   11.1799 C.ar    1  UNL1        0.0989
     20 N          62.6297   80.0381   12.4194 N.ar    1  UNL1       -0.2417
     21 C          65.3373   92.7224   16.3240 C.3     1  UNL1        0.0312
     22 C          65.1963   91.7382   15.2009 C.3     1  UNL1        0.1274
     23 C          65.7874   92.0445   13.8566 C.ar    1  UNL1        0.0038
     24 C          64.9050   92.1028   12.6450 C.ar    1  UNL1       -0.0025
     25 C          65.4961   92.4091   11.3009 C.ar    1  UNL1        0.0036
     26 C          66.9695   92.6571   11.1683 C.ar    1  UNL1        0.0714
     27 C          67.8519   92.5988   12.3799 C.ar    1  UNL1        0.0074
     28 C          67.2608   92.2925   13.7241 C.ar    1  UNL1        0.0692
     29 C          67.5606   92.9633    9.8241 C.3     1  UNL1        0.4186
     30 F          68.1516   93.2697    8.4799 F       1  UNL1       -0.1659
     31 F          67.9483   91.5230    9.6663 F       1  UNL1       -0.1659
     32 F          67.1728   94.4037    9.9818 F       1  UNL1       -0.1659
     33 C          68.1431   92.2342   14.9358 C.3     1  UNL1        0.4183
     34 F          69.0254   92.1760   16.1474 F       1  UNL1       -0.1659
     35 F          68.2711   93.7286   14.9144 F       1  UNL1       -0.1659
     36 F          68.0151   90.7399   14.9572 F       1  UNL1       -0.1659
@<TRIPOS>BOND
     1    22    21    1
     2    22    23    1
     3    23    24   ar
     4    24    25   ar
     5    25    26   ar
     6    26    29    1
     7    29    30    1
     8    29    31    1
     9    29    32    1
    10    26    27   ar
    11    27    28   ar
    12    28    33    1
    13    33    34    1
    14    33    35    1
    15    33    36    1
    16    22     1    1
    17     1     2   ar
    18     2     3   ar
    19     3     6    1
    20     6     7   am
    21     7     8    2
    22     7    10    1
    23    10    11   ar
    24    11    12   ar
    25    12    13   ar
    26    13    15    1
    27    15    16   ar
    28    16    17   ar
    29    17    18   ar
    30    18    19   ar
    31    19    20   ar
    32    13    14   ar
    33     3     4   ar
    34     4     5   ar
    35    28    23   ar
    36     5     1   ar
    37    14    10   ar
    38    20    15   ar
    39     6     9    1
@<TRIPOS>MOLECULE
*****
 36 39 0 0 0
SMALL
GASTEIGER

@<TRIPOS>ATOM
      1 N          61.7434   87.3946   11.3538 N.ar    1  UNL1       -0.2459
      2 C          61.9872   88.2170   10.1232 C.ar    1  UNL1        0.1116
      3 C          60.6875   88.8508    9.7243 C.ar    1  UNL1        0.0908
      4 C          59.6405   88.4203   10.7084 C.ar    1  UNL1        0.1363
      5 N          60.2931   87.5203   11.7154 N.ar    1  UNL1       -0.1661
      6 N          60.4726   89.7563    8.5479 N.am    1  UNL1       -0.2762
      7 C          59.5863   89.3213    7.4187 C.2     1  UNL1        0.2754
      8 O          58.9148   87.9808    7.4659 O.2     1  UNL1       -0.2675
      9 H          60.9133   90.6361    8.5169 H       1  UNL1        0.1553
     10 C          59.3714   90.2268    6.2423 C.ar    1  UNL1        0.1872
     11 N          58.0445   90.6794    5.7089 N.ar    1  UNL1       -0.1361
     12 N          58.2988   91.5710    4.5297 N.ar    1  UNL1       -0.1391
     13 C          59.7827   91.6693    4.3343 C.ar    1  UNL1        0.1514
     14 S          60.4457   90.8385    5.3928 S.2     1  UNL1       -0.0395
     15 C          60.4812   92.4597    3.2677 C.ar    1  UNL1        0.1068
     16 C          61.9093   92.1562    2.9233 C.ar    1  UNL1        0.0213
     17 C          62.6077   92.9466    1.8567 C.ar    1  UNL1        0.0032
     18 C          61.8780   94.0404    1.1346 C.ar    1  UNL1        0.0207
     19 C          60.4500   94.3438    1.4791 C.ar    1  UNL1        0.0989
     20 N          59.7516   93.5534    2.5457 N.ar    1  UNL1       -0.2417
     21 C          63.7692   87.2746   12.9760 C.3     1  UNL1        0.0312
     22 C          62.7698   86.5882   12.0929 C.3     1  UNL1        0.1274
     23 C          62.7966   85.0953   11.9490 C.ar    1  UNL1        0.0038
     24 C          62.6489   84.4698   10.5937 C.ar    1  UNL1       -0.0025
     25 C          62.6758   82.9770   10.4498 C.ar    1  UNL1        0.0036
     26 C          62.8504   82.1097   11.6611 C.ar    1  UNL1        0.0714
     27 C          62.9981   82.7353   13.0164 C.ar    1  UNL1        0.0074
     28 C          62.9712   84.2281   13.1603 C.ar    1  UNL1        0.0692
     29 C          62.8772   80.6169   11.5171 C.3     1  UNL1        0.4186
     30 F          62.9041   79.1240   11.3732 F       1  UNL1       -0.1659
     31 F          63.2197   80.7631   10.0641 F       1  UNL1       -0.1659
     32 F          62.5348   80.4706   12.9701 F       1  UNL1       -0.1659
     33 C          63.1189   84.8537   14.5156 C.3     1  UNL1        0.4183
     34 F          63.2667   85.4793   15.8709 F       1  UNL1       -0.1659
     35 F          64.6062   84.9078   14.3285 F       1  UNL1       -0.1659
     36 F          61.6317   84.7996   14.7028 F       1  UNL1       -0.1659
@<TRIPOS>BOND
     1    22    21    1
     2    22    23    1
     3    23    24   ar
     4    24    25   ar
     5    25    26   ar
     6    26    29    1
     7    29    30    1
     8    29    31    1
     9    29    32    1
    10    26    27   ar
    11    27    28   ar
    12    28    33    1
    13    33    34    1
    14    33    35    1
    15    33    36    1
    16    22     1    1
    17     1     2   ar
    18     2     3   ar
    19     3     6    1
    20     6     7   am
    21     7     8    2
    22     7    10    1
    23    10    11   ar
    24    11    12   ar
    25    12    13   ar
    26    13    15    1
    27    15    16   ar
    28    16    17   ar
    29    17    18   ar
    30    18    19   ar
    31    19    20   ar
    32    13    14   ar
    33     3     4   ar
    34     4     5   ar
    35    28    23   ar
    36     5     1   ar
    37    14    10   ar
    38    20    15   ar
    39     6     9    1
@<TRIPOS>MOLECULE
*****
 36 39 0 0 0
SMALL
GASTEIGER

@<TRIPOS>ATOM
      1 N          61.2336   88.0792    9.9540 N.ar    1  UNL1       -0.2459
      2 C          62.2357   88.5214   10.9788 C.ar    1  UNL1        0.1116
      3 C          61.9734   89.9650   11.2909 C.ar    1  UNL1        0.0908
      4 C          60.8092   90.4149   10.4590 C.ar    1  UNL1        0.1363
      5 N          60.3519   89.2495    9.6328 N.ar    1  UNL1       -0.1661
      6 N          62.7407   90.8101   12.2640 N.am    1  UNL1       -0.2762
      7 C          63.4914   90.1632   13.3900 C.2     1  UNL1        0.2754
      8 O          63.4748   88.6711   13.5428 O.2     1  UNL1       -0.2675
      9 H          62.7516   91.7895   12.1637 H       1  UNL1        0.1553
     10 C          64.2587   91.0084   14.3631 C.ar    1  UNL1        0.1872
     11 N          63.7053   91.6510   15.6003 N.ar    1  UNL1       -0.1361
     12 N          64.8187   92.3991   16.2717 N.ar    1  UNL1       -0.1391
     13 C          66.0602   92.2188   15.4495 C.ar    1  UNL1        0.1514
     14 S          65.7141   91.3592   14.2698 S.2     1  UNL1       -0.0395
     15 C          67.4107   92.7965   15.7534 C.ar    1  UNL1        0.1068
     16 C          68.5112   91.9082   16.2533 C.ar    1  UNL1        0.0213
     17 C          69.8617   92.4859   16.5572 C.ar    1  UNL1        0.0032
     18 C          70.1117   93.9520   16.3613 C.ar    1  UNL1        0.0207
     19 C          69.0112   94.8402   15.8615 C.ar    1  UNL1        0.0989
     20 N          67.6607   94.2625   15.5575 N.ar    1  UNL1       -0.2417
     21 C          60.2699   86.4781    8.1491 C.3     1  UNL1        0.0312
     22 C          61.1311   86.7076    9.3556 C.3     1  UNL1        0.1274
     23 C          61.8898   85.5654    9.9637 C.ar    1  UNL1        0.0038
     24 C          61.7884   85.2969   11.4360 C.ar    1  UNL1       -0.0025
     25 C          62.5472   84.1548   12.0440 C.ar    1  UNL1        0.0036
     26 C          63.4072   83.2810   11.1798 C.ar    1  UNL1        0.0714
     27 C          63.5086   83.5495    9.7075 C.ar    1  UNL1        0.0074
     28 C          62.7499   84.6916    9.0995 C.ar    1  UNL1        0.0692
     29 C          64.1659   82.1388   11.7879 C.3     1  UNL1        0.4186
     30 F          64.9246   80.9966   12.3960 F       1  UNL1       -0.1659
     31 F          64.6795   83.0516   12.8617 F       1  UNL1       -0.1659
     32 F          63.6524   81.2261   10.7142 F       1  UNL1       -0.1659
     33 C          62.8512   84.9601    7.6271 C.3     1  UNL1        0.4183
     34 F          62.9525   85.2285    6.1549 F       1  UNL1       -0.1659
     35 F          61.7884   83.9341    7.3669 F       1  UNL1       -0.1659
     36 F          63.9140   85.9861    7.8873 F       1  UNL1       -0.1659
@<TRIPOS>BOND
     1    22    21    1
     2    22    23    1
     3    23    24   ar
     4    24    25   ar
     5    25    26   ar
     6    26    29    1
     7    29    30    1
     8    29    31    1
     9    29    32    1
    10    26    27   ar
    11    27    28   ar
    12    28    33    1
    13    33    34    1
    14    33    35    1
    15    33    36    1
    16    22     1    1
    17     1     2   ar
    18     2     3   ar
    19     3     6    1
    20     6     7   am
    21     7     8    2
    22     7    10    1
    23    10    11   ar
    24    11    12   ar
    25    12    13   ar
    26    13    15    1
    27    15    16   ar
    28    16    17   ar
    29    17    18   ar
    30    18    19   ar
    31    19    20   ar
    32    13    14   ar
    33     3     4   ar
    34     4     5   ar
    35    28    23   ar
    36     5     1   ar
    37    14    10   ar
    38    20    15   ar
    39     6     9    1
@<TRIPOS>MOLECULE
*****
 36 39 0 0 0
SMALL
GASTEIGER

@<TRIPOS>ATOM
      1 N          63.2774   90.6645   11.3984 N.ar    1  UNL1       -0.2459
      2 C          63.6385   89.2296   11.6449 C.ar    1  UNL1        0.1116
      3 C          62.3826   88.4141   11.5584 C.ar    1  UNL1        0.0908
      4 C          61.2452   89.3449   11.2585 C.ar    1  UNL1        0.1363
      5 N          61.7983   90.7357   11.1596 N.ar    1  UNL1       -0.1661
      6 N          62.2817   86.9285   11.7400 N.am    1  UNL1       -0.2762
      7 C          63.0553   86.2523   12.8328 C.2     1  UNL1        0.2754
      8 O          63.9299   87.0616   13.7440 O.2     1  UNL1       -0.2675
      9 H          61.7077   86.3973   11.1420 H       1  UNL1        0.1553
     10 C          62.9545   84.7668   13.0144 C.ar    1  UNL1        0.1872
     11 N          62.8199   84.0455   14.3227 N.ar    1  UNL1       -0.1361
     12 N          62.7527   82.5746   14.0364 N.ar    1  UNL1       -0.1391
     13 C          62.8458   82.3868   12.5511 C.ar    1  UNL1        0.1514
     14 S          62.9705   83.7416   11.9194 S.2     1  UNL1       -0.0395
     15 C          62.8189   81.0745   11.8249 C.ar    1  UNL1        0.1068
     16 C          63.0616   81.0310   10.3453 C.ar    1  UNL1        0.0213
     17 C          63.0347   79.7188    9.6191 C.ar    1  UNL1        0.0032
     18 C          62.7650   78.4501   10.3726 C.ar    1  UNL1        0.0207
     19 C          62.5223   78.4936   11.8522 C.ar    1  UNL1        0.0989
     20 N          62.5492   79.8058   12.5783 N.ar    1  UNL1       -0.2417
     21 C          64.1526   92.8504   10.3004 C.3     1  UNL1        0.0312
     22 C          64.2285   91.8244   11.3919 C.3     1  UNL1        0.1274
     23 C          65.2555   91.9583   12.4770 C.ar    1  UNL1        0.0038
     24 C          64.9632   91.4412   13.8543 C.ar    1  UNL1       -0.0025
     25 C          65.9902   91.5751   14.9393 C.ar    1  UNL1        0.0036
     26 C          67.3096   92.2261   14.6470 C.ar    1  UNL1        0.0714
     27 C          67.6019   92.7432   13.2696 C.ar    1  UNL1        0.0074
     28 C          66.5749   92.6093   12.1846 C.ar    1  UNL1        0.0692
     29 C          68.3366   92.3600   15.7321 C.3     1  UNL1        0.4186
     30 F          69.3635   92.4939   16.8171 F       1  UNL1       -0.1659
     31 F          69.4268   92.3472   14.7019 F       1  UNL1       -0.1659
     32 F          67.2464   92.3729   16.7623 F       1  UNL1       -0.1659
     33 C          66.8672   93.1264   10.8072 C.3     1  UNL1        0.4183
     34 F          67.1596   93.6435    9.4299 F       1  UNL1       -0.1659
     35 F          66.4646   94.5052   11.2394 F       1  UNL1       -0.1659
     36 F          67.2699   91.7476   10.3750 F       1  UNL1       -0.1659
@<TRIPOS>BOND
     1    22    21    1
     2    22    23    1
     3    23    24   ar
     4    24    25   ar
     5    25    26   ar
     6    26    29    1
     7    29    30    1
     8    29    31    1
     9    29    32    1
    10    26    27   ar
    11    27    28   ar
    12    28    33    1
    13    33    34    1
    14    33    35    1
    15    33    36    1
    16    22     1    1
    17     1     2   ar
    18     2     3   ar
    19     3     6    1
    20     6     7   am
    21     7     8    2
    22     7    10    1
    23    10    11   ar
    24    11    12   ar
    25    12    13   ar
    26    13    15    1
    27    15    16   ar
    28    16    17   ar
    29    17    18   ar
    30    18    19   ar
    31    19    20   ar
    32    13    14   ar
    33     3     4   ar
    34     4     5   ar
    35    28    23   ar
    36     5     1   ar
    37    14    10   ar
    38    20    15   ar
    39     6     9    1
@<TRIPOS>MOLECULE
*****
 36 39 0 0 0
SMALL
GASTEIGER

@<TRIPOS>ATOM
      1 N          63.6660   90.0968   12.7877 N.ar    1  UNL1       -0.2459
      2 C          63.9055   88.6467   13.0878 C.ar    1  UNL1        0.1116
      3 C          62.9026   87.8417   12.3155 C.ar    1  UNL1        0.0908
      4 C          62.0434   88.7943   11.5381 C.ar    1  UNL1        0.1363
      5 N          62.5152   90.1879   11.8299 N.ar    1  UNL1       -0.1661
      6 N          62.7806   86.3467   12.3199 N.am    1  UNL1       -0.2762
      7 C          63.2521   85.5593   13.5063 C.2     1  UNL1        0.2754
      8 O          63.8456   86.2668   14.6883 O.2     1  UNL1       -0.2675
      9 H          62.3910   85.8824   11.5441 H       1  UNL1        0.1553
     10 C          63.1300   84.0642   13.5107 C.ar    1  UNL1        0.1872
     11 N          63.0382   83.1907   14.7266 N.ar    1  UNL1       -0.1361
     12 N          62.9297   81.7668   14.2672 N.ar    1  UNL1       -0.1391
     13 C          62.9544   81.7604   12.7674 C.ar    1  UNL1        0.1514
     14 S          63.0782   83.1804   12.2998 S.2     1  UNL1       -0.0395
     15 C          62.8702   80.5472   11.8894 C.ar    1  UNL1        0.1068
     16 C          63.0805   80.6761   10.4098 C.ar    1  UNL1        0.0213
     17 C          62.9962   79.4629    9.5318 C.ar    1  UNL1        0.0032
     18 C          62.7017   78.1207   10.1334 C.ar    1  UNL1        0.0207
     19 C          62.4914   77.9918   11.6129 C.ar    1  UNL1        0.0989
     20 N          62.5757   79.2050   12.4909 N.ar    1  UNL1       -0.2417
     21 C          64.5129   91.4597   14.8310 C.3     1  UNL1        0.0312
     22 C          64.4412   91.2526   13.3471 C.3     1  UNL1        0.1274
     23 C          65.1448   92.2015   12.4225 C.ar    1  UNL1        0.0038
     24 C          64.5750   92.4865   11.0646 C.ar    1  UNL1       -0.0025
     25 C          65.2786   93.4353   10.1401 C.ar    1  UNL1        0.0036
     26 C          66.5519   94.0992   10.5736 C.ar    1  UNL1        0.0714
     27 C          67.1217   93.8142   11.9316 C.ar    1  UNL1        0.0074
     28 C          66.4181   92.8654   12.8560 C.ar    1  UNL1        0.0692
     29 C          67.2555   95.0480    9.6490 C.3     1  UNL1        0.4186
     30 F          67.9590   95.9969    8.7246 F       1  UNL1       -0.1659
     31 F          67.6211   93.9029    8.7519 F       1  UNL1       -0.1659
     32 F          66.8899   96.1932   10.5462 F       1  UNL1       -0.1659
     33 C          66.9879   92.5804   14.2141 C.3     1  UNL1        0.4183
     34 F          67.5576   92.2954   15.5721 F       1  UNL1       -0.1659
     35 F          67.5503   91.2859   13.7064 F       1  UNL1       -0.1659
     36 F          66.4254   93.8750   14.7218 F       1  UNL1       -0.1659
@<TRIPOS>BOND
     1    22    21    1
     2    22    23    1
     3    23    24   ar
     4    24    25   ar
     5    25    26   ar
     6    26    29    1
     7    29    30    1
     8    29    31    1
     9    29    32    1
    10    26    27   ar
    11    27    28   ar
    12    28    33    1
    13    33    34    1
    14    33    35    1
    15    33    36    1
    16    22     1    1
    17     1     2   ar
    18     2     3   ar
    19     3     6    1
    20     6     7   am
    21     7     8    2
    22     7    10    1
    23    10    11   ar
    24    11    12   ar
    25    12    13   ar
    26    13    15    1
    27    15    16   ar
    28    16    17   ar
    29    17    18   ar
    30    18    19   ar
    31    19    20   ar
    32    13    14   ar
    33     3     4   ar
    34     4     5   ar
    35    28    23   ar
    36     5     1   ar
    37    14    10   ar
    38    20    15   ar
    39     6     9    1
@<TRIPOS>MOLECULE
*****
 36 39 0 0 0
SMALL
GASTEIGER

@<TRIPOS>ATOM
      1 N          61.9291   88.6074   11.4333 N.ar    1  UNL1       -0.2459
      2 C          61.9747   89.5955   10.3057 C.ar    1  UNL1        0.1116
      3 C          60.6608   89.5367    9.5843 C.ar    1  UNL1        0.0908
      4 C          59.8032   88.5122   10.2662 C.ar    1  UNL1        0.1363
      5 N          60.5870   87.9379   11.4089 N.ar    1  UNL1       -0.1661
      6 N          60.2727   90.3581    8.3907 N.am    1  UNL1       -0.2762
      7 C          59.7049   89.6905    7.1735 C.2     1  UNL1        0.2754
      8 O          59.5251   88.2015    7.1497 O.2     1  UNL1       -0.2675
      9 H          60.3907   91.3354    8.4063 H       1  UNL1        0.1553
     10 C          59.3168   90.5119    5.9799 C.ar    1  UNL1        0.1872
     11 N          57.9178   90.8641    5.5690 N.ar    1  UNL1       -0.1361
     12 N          57.9961   91.6952    4.3228 N.ar    1  UNL1       -0.1391
     13 C          59.4434   91.8567    3.9634 C.ar    1  UNL1        0.1514
     14 S          60.2597   91.1254    4.9875 S.2     1  UNL1       -0.0395
     15 C          59.9802   92.6162    2.7865 C.ar    1  UNL1        0.1068
     16 C          61.4615   92.7316    2.5808 C.ar    1  UNL1        0.0213
     17 C          61.9983   93.4911    1.4039 C.ar    1  UNL1        0.0032
     18 C          61.0537   94.1351    0.4327 C.ar    1  UNL1        0.0207
     19 C          59.5724   94.0196    0.6384 C.ar    1  UNL1        0.0989
     20 N          59.0357   93.2601    1.8153 N.ar    1  UNL1       -0.2417
     21 C          63.3179   86.9304   12.8506 C.3     1  UNL1        0.0312
     22 C          63.0319   88.3364   12.4133 C.3     1  UNL1        0.1274
     23 C          63.8487   89.4715   12.9559 C.ar    1  UNL1        0.0038
     24 C          64.2092   90.6269   12.0699 C.ar    1  UNL1       -0.0025
     25 C          65.0260   91.7619   12.6125 C.ar    1  UNL1        0.0036
     26 C          65.4823   91.7416   14.0413 C.ar    1  UNL1        0.0714
     27 C          65.1219   90.5862   14.9274 C.ar    1  UNL1        0.0074
     28 C          64.3051   89.4512   14.3847 C.ar    1  UNL1        0.0692
     29 C          66.2991   92.8767   14.5840 C.3     1  UNL1        0.4186
     30 F          67.1159   94.0117   15.1266 F       1  UNL1       -0.1659
     31 F          66.0384   93.6624   13.3331 F       1  UNL1       -0.1659
     32 F          66.5598   92.0910   15.8348 F       1  UNL1       -0.1659
     33 C          63.9446   88.2958   15.2708 C.3     1  UNL1        0.4183
     34 F          63.5841   87.1404   16.1568 F       1  UNL1       -0.1659
     35 F          65.1319   87.5342   14.7607 F       1  UNL1       -0.1659
     36 F          62.7572   89.0573   15.7808 F       1  UNL1       -0.1659
@<TRIPOS>BOND
     1    22    21    1
     2    22    23    1
     3    23    24   ar
     4    24    25   ar
     5    25    26   ar
     6    26    29    1
     7    29    30    1
     8    29    31    1
     9    29    32    1
    10    26    27   ar
    11    27    28   ar
    12    28    33    1
    13    33    34    1
    14    33    35    1
    15    33    36    1
    16    22     1    1
    17     1     2   ar
    18     2     3   ar
    19     3     6    1
    20     6     7   am
    21     7     8    2
    22     7    10    1
    23    10    11   ar
    24    11    12   ar
    25    12    13   ar
    26    13    15    1
    27    15    16   ar
    28    16    17   ar
    29    17    18   ar
    30    18    19   ar
    31    19    20   ar
    32    13    14   ar
    33     3     4   ar
    34     4     5   ar
    35    28    23   ar
    36     5     1   ar
    37    14    10   ar
    38    20    15   ar
    39     6     9    1
@<TRIPOS>MOLECULE
*****
 36 39 0 0 0
SMALL
GASTEIGER

@<TRIPOS>ATOM
      1 N          59.9478   89.2949    8.8300 N.ar    1  UNL1       -0.2459
      2 C          60.6164   90.2694    7.9064 C.ar    1  UNL1        0.1116
      3 C          60.1104   90.0138    6.5176 C.ar    1  UNL1        0.0908
      4 C          59.1290   88.8813    6.5830 C.ar    1  UNL1        0.1363
      5 N          59.0285   88.4370    8.0121 N.ar    1  UNL1       -0.1661
      6 N          60.5149   90.7597    5.2807 N.am    1  UNL1       -0.2762
      7 C          59.5375   91.6737    4.6028 C.2     1  UNL1        0.2754
      8 O          58.1558   91.8416    5.1619 O.2     1  UNL1       -0.2675
      9 H          61.4218   90.6495    4.9137 H       1  UNL1        0.1553
     10 C          59.9419   92.4196    3.3659 C.ar    1  UNL1        0.1872
     11 N          59.0117   92.9936    2.3387 N.ar    1  UNL1       -0.1361
     12 N          59.8425   93.6513    1.2770 N.ar    1  UNL1       -0.1391
     13 C          61.2862   93.4838    1.6480 C.ar    1  UNL1        0.1514
     14 S          61.3477   92.7225    2.9391 S.2     1  UNL1       -0.0395
     15 C          62.4620   93.9888    0.8654 C.ar    1  UNL1        0.1068
     16 C          63.8351   93.4536    1.1454 C.ar    1  UNL1        0.0213
     17 C          65.0109   93.9586    0.3628 C.ar    1  UNL1        0.0032
     18 C          64.8136   94.9989   -0.6998 C.ar    1  UNL1        0.0207
     19 C          63.4406   95.5340   -0.9798 C.ar    1  UNL1        0.0989
     20 N          62.2648   95.0290   -0.1972 N.ar    1  UNL1       -0.2417
     21 C          59.4902   90.1710   11.2327 C.3     1  UNL1        0.0312
     22 C          60.1609   89.1956   10.3115 C.3     1  UNL1        0.1274
     23 C          61.0449   88.1210   10.8717 C.ar    1  UNL1        0.0038
     24 C          60.6620   86.6789   10.7179 C.ar    1  UNL1       -0.0025
     25 C          61.5459   85.6043   11.2781 C.ar    1  UNL1        0.0036
     26 C          62.8128   85.9719   11.9922 C.ar    1  UNL1        0.0714
     27 C          63.1958   87.4139   12.1460 C.ar    1  UNL1        0.0074
     28 C          62.3118   88.4885   11.5858 C.ar    1  UNL1        0.0692
     29 C          63.6968   84.8972   12.5524 C.3     1  UNL1        0.4186
     30 F          64.5807   83.8226   13.1125 F       1  UNL1       -0.1659
     31 F          64.0376   85.7830   13.7139 F       1  UNL1       -0.1659
     32 F          63.3559   84.0114   11.3909 F       1  UNL1       -0.1659
     33 C          62.6947   89.9307   11.7396 C.3     1  UNL1        0.4183
     34 F          63.0777   91.3727   11.8934 F       1  UNL1       -0.1659
     35 F          63.1979   89.9477   10.3267 F       1  UNL1       -0.1659
     36 F          62.1916   89.9136   13.1526 F       1  UNL1       -0.1659
@<TRIPOS>BOND
     1    22    21    1
     2    22    23    1
     3    23    24   ar
     4    24    25   ar
     5    25    26   ar
     6    26    29    1
     7    29    30    1
     8    29    31    1
     9    29    32    1
    10    26    27   ar
    11    27    28   ar
    12    28    33    1
    13    33    34    1
    14    33    35    1
    15    33    36    1
    16    22     1    1
    17     1     2   ar
    18     2     3   ar
    19     3     6    1
    20     6     7   am
    21     7     8    2
    22     7    10    1
    23    10    11   ar
    24    11    12   ar
    25    12    13   ar
    26    13    15    1
    27    15    16   ar
    28    16    17   ar
    29    17    18   ar
    30    18    19   ar
    31    19    20   ar
    32    13    14   ar
    33     3     4   ar
    34     4     5   ar
    35    28    23   ar
    36     5     1   ar
    37    14    10   ar
    38    20    15   ar
    39     6     9    1
@<TRIPOS>MOLECULE
*****
 36 39 0 0 0
SMALL
GASTEIGER

@<TRIPOS>ATOM
      1 N          59.5856   89.1199    7.3714 N.ar    1  UNL1       -0.2459
      2 C          60.6082   89.8845    6.5843 C.ar    1  UNL1        0.1116
      3 C          59.8863   90.6881    5.5435 C.ar    1  UNL1        0.0908
      4 C          58.4175   90.4201    5.6874 C.ar    1  UNL1        0.1363
      5 N          58.2316   89.4509    6.8170 N.ar    1  UNL1       -0.1661
      6 N          60.5217   91.5997    4.5359 N.am    1  UNL1       -0.2762
      7 C          59.6628   92.4403    3.6384 C.2     1  UNL1        0.2754
      8 O          58.1685   92.3694    3.7485 O.2     1  UNL1       -0.2675
      9 H          61.5025   91.6462    4.4636 H       1  UNL1        0.1553
     10 C          60.2982   93.3519    2.6307 C.ar    1  UNL1        0.1872
     11 N          60.1926   94.8479    2.6050 N.ar    1  UNL1       -0.1361
     12 N          60.9799   95.3480    1.4302 N.ar    1  UNL1       -0.1391
     13 C          61.5722   94.1611    0.7299 C.ar    1  UNL1        0.1514
     14 S          61.1508   92.9273    1.4719 S.2     1  UNL1       -0.0395
     15 C          62.4343   94.2008   -0.4969 C.ar    1  UNL1        0.1068
     16 C          62.1419   93.2858   -1.6491 C.ar    1  UNL1        0.0213
     17 C          63.0040   93.3256   -2.8759 C.ar    1  UNL1        0.0032
     18 C          64.1586   94.2803   -2.9506 C.ar    1  UNL1        0.0207
     19 C          64.4510   95.1952   -1.7985 C.ar    1  UNL1        0.0989
     20 N          63.5888   95.1555   -0.5716 N.ar    1  UNL1       -0.2417
     21 C          59.2311   86.8299    8.5463 C.3     1  UNL1        0.0312
     22 C          59.8674   88.1879    8.5124 C.3     1  UNL1        0.1274
     23 C          60.7855   88.6138    9.6195 C.ar    1  UNL1        0.0038
     24 C          60.6659   89.9894   10.2056 C.ar    1  UNL1       -0.0025
     25 C          61.5840   90.4153   11.3127 C.ar    1  UNL1        0.0036
     26 C          62.6217   89.4656   11.8337 C.ar    1  UNL1        0.0714
     27 C          62.7413   88.0901   11.2476 C.ar    1  UNL1        0.0074
     28 C          61.8232   87.6642   10.1405 C.ar    1  UNL1        0.0692
     29 C          63.5398   89.8916   12.9408 C.3     1  UNL1        0.4186
     30 F          64.4579   90.3175   14.0479 F       1  UNL1       -0.1659
     31 F          63.1993   91.3272   12.6709 F       1  UNL1       -0.1659
     32 F          63.8804   88.4560   13.2107 F       1  UNL1       -0.1659
     33 C          61.9428   86.2886    9.5543 C.3     1  UNL1        0.4183
     34 F          62.0623   84.9131    8.9682 F       1  UNL1       -0.1659
     35 F          62.8406   86.8249    8.4791 F       1  UNL1       -0.1659
     36 F          61.0449   85.7523   10.6296 F       1  UNL1       -0.1659
@<TRIPOS>BOND
     1    22    21    1
     2    22    23    1
     3    23    24   ar
     4    24    25   ar
     5    25    26   ar
     6    26    29    1
     7    29    30    1
     8    29    31    1
     9    29    32    1
    10    26    27   ar
    11    27    28   ar
    12    28    33    1
    13    33    34    1
    14    33    35    1
    15    33    36    1
    16    22     1    1
    17     1     2   ar
    18     2     3   ar
    19     3     6    1
    20     6     7   am
    21     7     8    2
    22     7    10    1
    23    10    11   ar
    24    11    12   ar
    25    12    13   ar
    26    13    15    1
    27    15    16   ar
    28    16    17   ar
    29    17    18   ar
    30    18    19   ar
    31    19    20   ar
    32    13    14   ar
    33     3     4   ar
    34     4     5   ar
    35    28    23   ar
    36     5     1   ar
    37    14    10   ar
    38    20    15   ar
    39     6     9    1
