@<TRIPOS>MOLECULE
*****
 22 24 0 0 0
SMALL
GASTEIGER

@<TRIPOS>ATOM
      1 C          61.9007   90.1477   10.5082 C.ar    1  UNL1        0.1397
      2 C          61.7596   89.7533   11.9485 C.ar    1  UNL1        0.0385
      3 C          62.7314   90.2717   12.9667 C.ar    1  UNL1        0.0228
      4 C          63.8444   91.1844   12.5446 C.ar    1  UNL1        0.0894
      5 N          64.9456   91.8484   13.3171 N.ar    1  UNL1       -0.2245
      6 C          65.7673   92.6530   12.3541 C.ar    1  UNL1        0.1567
      7 N          66.9711   93.4793   12.6983 N.pl3   1  UNL1       -0.3375
      8 S          65.1740   92.4864   10.9866 S.2     1  UNL1       -0.0519
      9 C          63.9856   91.5788   11.1043 C.ar    1  UNL1        0.0527
     10 C          63.0137   91.0604   10.0861 C.ar    1  UNL1        0.0450
     11 H          67.2859   93.5263   13.6299 H       1  UNL1        0.1442
     12 H          67.4463   93.9746   11.9925 H       1  UNL1        0.1442
     13 O          60.9289   89.6293    9.4899 O.3     1  UNL1       -0.4706
     14 C          60.3198   88.2690    9.6589 C.3     1  UNL1        0.2320
     15 C          62.9674   84.6604   10.1263 C.ar    1  UNL1        0.0684
     16 C          62.8966   85.3731    8.8083 C.ar    1  UNL1        0.0101
     17 C          62.0141   86.5759    8.6525 C.ar    1  UNL1       -0.0000
     18 C          61.2023   87.0661    9.8147 C.ar    1  UNL1        0.0212
     19 C          61.2731   86.3535   11.1327 C.ar    1  UNL1       -0.0000
     20 C          62.1556   85.1507   11.2885 C.ar    1  UNL1        0.0101
     21 N          64.7325   82.2547   10.4378 N.1     1  UNL1       -0.1908
     22 C          63.8499   83.4575   10.2821 C.1     1  UNL1        0.1004
@<TRIPOS>BOND
     1    21    22    3
     2    22    15    1
     3    15    16   ar
     4    16    17   ar
     5    17    18   ar
     6    18    14    1
     7    14    13    1
     8    13     1    1
     9     1     2   ar
    10     2     3   ar
    11     3     4   ar
    12     4     5   ar
    13     5     6   ar
    14     6     7    1
    15     6     8   ar
    16     8     9   ar
    17     9    10   ar
    18    18    19   ar
    19    19    20   ar
    20    20    15   ar
    21    10     1   ar
    22     9     4   ar
    23     7    11    1
    24     7    12    1
@<TRIPOS>MOLECULE
*****
 22 24 0 0 0
SMALL
GASTEIGER

@<TRIPOS>ATOM
      1 C          62.3696   86.0564   10.1680 C.ar    1  UNL1        0.1397
      2 C          63.0414   85.1905    9.1439 C.ar    1  UNL1        0.0385
      3 C          63.5876   83.8500    9.5372 C.ar    1  UNL1        0.0228
      4 C          63.4619   83.3754   10.9546 C.ar    1  UNL1        0.0894
      5 N          63.9004   82.1111   11.6323 N.ar    1  UNL1       -0.2245
      6 C          63.4995   82.1957   13.0753 C.ar    1  UNL1        0.1567
      7 N          63.7422   81.1477   14.1207 N.pl3   1  UNL1       -0.3375
      8 S          62.8133   83.5122   13.2893 S.2     1  UNL1       -0.0519
      9 C          62.7900   84.2413   11.9787 C.ar    1  UNL1        0.0527
     10 C          62.2439   85.5818   11.5854 C.ar    1  UNL1        0.0450
     11 H          64.2038   80.3116   13.8817 H       1  UNL1        0.1442
     12 H          63.4400   81.2960   15.0459 H       1  UNL1        0.1442
     13 O          61.8234   87.3970    9.7747 O.3     1  UNL1       -0.4706
     14 C          61.4907   88.4102   10.8296 C.3     1  UNL1        0.2320
     15 C          64.4804   91.5939   11.9140 C.ar    1  UNL1        0.0684
     16 C          64.1560   90.5049   12.8932 C.ar    1  UNL1        0.0101
     17 C          63.1595   89.4437   12.5317 C.ar    1  UNL1       -0.0000
     18 C          62.4873   89.4714   11.1911 C.ar    1  UNL1        0.0212
     19 C          62.8117   90.5604   10.2119 C.ar    1  UNL1       -0.0000
     20 C          63.8082   91.6216   10.5733 C.ar    1  UNL1        0.0101
     21 N          66.4735   93.7164   12.6369 N.1     1  UNL1       -0.1908
     22 C          65.4770   92.6551   12.2754 C.1     1  UNL1        0.1004
@<TRIPOS>BOND
     1    21    22    3
     2    22    15    1
     3    15    16   ar
     4    16    17   ar
     5    17    18   ar
     6    18    14    1
     7    14    13    1
     8    13     1    1
     9     1     2   ar
    10     2     3   ar
    11     3     4   ar
    12     4     5   ar
    13     5     6   ar
    14     6     7    1
    15     6     8   ar
    16     8     9   ar
    17     9    10   ar
    18    18    19   ar
    19    19    20   ar
    20    20    15   ar
    21    10     1   ar
    22     9     4   ar
    23     7    11    1
    24     7    12    1
@<TRIPOS>MOLECULE
*****
 22 24 0 0 0
SMALL
GASTEIGER

@<TRIPOS>ATOM
      1 C          62.7638   90.0421   12.1657 C.ar    1  UNL1        0.1397
      2 C          63.0485   90.8227   10.9169 C.ar    1  UNL1        0.0385
      3 C          64.1795   91.8075   10.8897 C.ar    1  UNL1        0.0228
      4 C          65.0258   92.0117   12.1111 C.ar    1  UNL1        0.0894
      5 N          66.1997   92.9059   12.3809 N.ar    1  UNL1       -0.2245
      6 C          66.6403   92.6779   13.7965 C.ar    1  UNL1        0.1567
      7 N          67.7820   93.3644   14.4860 N.pl3   1  UNL1       -0.3375
      8 S          65.7389   91.6428   14.4015 S.2     1  UNL1       -0.0519
      9 C          64.7411   91.2311   13.3599 C.ar    1  UNL1        0.0527
     10 C          63.6101   90.2462   13.3872 C.ar    1  UNL1        0.0450
     11 H          68.3185   94.0334   14.0024 H       1  UNL1        0.1442
     12 H          67.9948   93.1459   15.4220 H       1  UNL1        0.1442
     13 O          61.6327   89.0571   12.1931 O.3     1  UNL1       -0.4706
     14 C          60.6436   89.0195   11.0660 C.3     1  UNL1        0.2320
     15 C          61.0778   85.9628    7.7923 C.ar    1  UNL1        0.0684
     16 C          62.1807   86.1541    8.7908 C.ar    1  UNL1        0.0101
     17 C          62.0359   87.1730    9.8821 C.ar    1  UNL1       -0.0000
     18 C          60.7884   88.0006    9.9747 C.ar    1  UNL1        0.0212
     19 C          59.6855   87.8092    8.9762 C.ar    1  UNL1       -0.0000
     20 C          59.8303   86.7904    7.8849 C.ar    1  UNL1        0.0101
     21 N          61.3674   83.9249    5.6097 N.1     1  UNL1       -0.1908
     22 C          61.2226   84.9438    6.7010 C.1     1  UNL1        0.1004
@<TRIPOS>BOND
     1    21    22    3
     2    22    15    1
     3    15    16   ar
     4    16    17   ar
     5    17    18   ar
     6    18    14    1
     7    14    13    1
     8    13     1    1
     9     1     2   ar
    10     2     3   ar
    11     3     4   ar
    12     4     5   ar
    13     5     6   ar
    14     6     7    1
    15     6     8   ar
    16     8     9   ar
    17     9    10   ar
    18    18    19   ar
    19    19    20   ar
    20    20    15   ar
    21    10     1   ar
    22     9     4   ar
    23     7    11    1
    24     7    12    1
@<TRIPOS>MOLECULE
*****
 22 24 0 0 0
SMALL
GASTEIGER

@<TRIPOS>ATOM
      1 C          61.8764   90.1009   11.0681 C.ar    1  UNL1        0.1397
      2 C          62.6606   90.9618   10.1226 C.ar    1  UNL1        0.0385
      3 C          63.9007   91.6597   10.5968 C.ar    1  UNL1        0.0228
      4 C          64.3567   91.4968   12.0165 C.ar    1  UNL1        0.0894
      5 N          65.5305   92.0566   12.7642 N.ar    1  UNL1       -0.2245
      6 C          65.4717   91.5417   14.1718 C.ar    1  UNL1        0.1567
      7 N          66.4510   91.8506   15.2653 N.pl3   1  UNL1       -0.3375
      8 S          64.2617   90.6637   14.2940 S.2     1  UNL1       -0.0519
      9 C          63.5726   90.6359   12.9620 C.ar    1  UNL1        0.0527
     10 C          62.3325   89.9380   12.4878 C.ar    1  UNL1        0.0450
     11 H          67.2181   92.4413   15.0867 H       1  UNL1        0.1442
     12 H          66.3267   91.4627   16.1615 H       1  UNL1        0.1442
     13 O          60.6362   89.4029   10.5940 O.3     1  UNL1       -0.4706
     14 C          60.7254   88.3672    9.5127 C.3     1  UNL1        0.2320
     15 C          63.0807   84.5947   10.1993 C.ar    1  UNL1        0.0684
     16 C          62.3400   85.2339   11.3363 C.ar    1  UNL1        0.0101
     17 C          61.5549   86.4913   11.1075 C.ar    1  UNL1       -0.0000
     18 C          61.5105   87.1096    9.7416 C.ar    1  UNL1        0.0212
     19 C          62.2512   86.4705    8.6046 C.ar    1  UNL1       -0.0000
     20 C          63.0363   85.2131    8.8334 C.ar    1  UNL1        0.0101
     21 N          64.6509   82.0798   10.6570 N.1     1  UNL1       -0.1908
     22 C          63.8658   83.3372   10.4281 C.1     1  UNL1        0.1004
@<TRIPOS>BOND
     1    21    22    3
     2    22    15    1
     3    15    16   ar
     4    16    17   ar
     5    17    18   ar
     6    18    14    1
     7    14    13    1
     8    13     1    1
     9     1     2   ar
    10     2     3   ar
    11     3     4   ar
    12     4     5   ar
    13     5     6   ar
    14     6     7    1
    15     6     8   ar
    16     8     9   ar
    17     9    10   ar
    18    18    19   ar
    19    19    20   ar
    20    20    15   ar
    21    10     1   ar
    22     9     4   ar
    23     7    11    1
    24     7    12    1
@<TRIPOS>MOLECULE
*****
 22 24 0 0 0
SMALL
GASTEIGER

@<TRIPOS>ATOM
      1 C          64.0239   89.5429   13.8960 C.ar    1  UNL1        0.1397
      2 C          63.2501   89.5558   12.6111 C.ar    1  UNL1        0.0385
      3 C          63.4837   90.6443   11.6058 C.ar    1  UNL1        0.0228
      4 C          64.4912   91.7198   11.8855 C.ar    1  UNL1        0.0894
      5 N          64.9335   92.9121   11.0899 N.ar    1  UNL1       -0.2245
      6 C          65.9807   93.6360   11.8831 C.ar    1  UNL1        0.1567
      7 N          66.6973   94.8855   11.4642 N.pl3   1  UNL1       -0.3375
      8 S          66.1856   92.8912   13.1689 S.2     1  UNL1       -0.0519
      9 C          65.2650   91.7069   13.1703 C.ar    1  UNL1        0.0527
     10 C          65.0314   90.6184   14.1756 C.ar    1  UNL1        0.0450
     11 H          66.4926   95.3029   10.5964 H       1  UNL1        0.1442
     12 H          67.3723   95.2881   12.0571 H       1  UNL1        0.1442
     13 O          63.7903   88.4544   14.9013 O.3     1  UNL1       -0.4706
     14 C          64.5854   87.1845   14.8302 C.3     1  UNL1        0.2320
     15 C          62.4813   83.2366   14.3437 C.ar    1  UNL1        0.0684
     16 C          62.7130   83.7990   15.7148 C.ar    1  UNL1        0.0101
     17 C          63.4143   85.1150   15.8770 C.ar    1  UNL1       -0.0000
     18 C          63.8840   85.8684   14.6681 C.ar    1  UNL1        0.0212
     19 C          63.6524   85.3060   13.2969 C.ar    1  UNL1       -0.0000
     20 C          62.9511   83.9900   13.1348 C.ar    1  UNL1        0.0101
     21 N          61.0786   80.6046   14.0194 N.1     1  UNL1       -0.1908
     22 C          61.7800   81.9205   14.1816 C.1     1  UNL1        0.1004
@<TRIPOS>BOND
     1    21    22    3
     2    22    15    1
     3    15    16   ar
     4    16    17   ar
     5    17    18   ar
     6    18    14    1
     7    14    13    1
     8    13     1    1
     9     1     2   ar
    10     2     3   ar
    11     3     4   ar
    12     4     5   ar
    13     5     6   ar
    14     6     7    1
    15     6     8   ar
    16     8     9   ar
    17     9    10   ar
    18    18    19   ar
    19    19    20   ar
    20    20    15   ar
    21    10     1   ar
    22     9     4   ar
    23     7    11    1
    24     7    12    1
@<TRIPOS>MOLECULE
*****
 22 24 0 0 0
SMALL
GASTEIGER

@<TRIPOS>ATOM
      1 C          64.1670   83.0944   12.9679 C.ar    1  UNL1        0.1397
      2 C          63.0553   82.2785   13.5582 C.ar    1  UNL1        0.0385
      3 C          62.3545   82.7512   14.7973 C.ar    1  UNL1        0.0228
      4 C          62.7654   84.0397   15.4461 C.ar    1  UNL1        0.0894
      5 N          62.2626   84.7547   16.6652 N.ar    1  UNL1       -0.2245
      6 C          63.0636   86.0123   16.8283 C.ar    1  UNL1        0.1567
      7 N          62.8963   87.0292   17.9183 N.pl3   1  UNL1       -0.3375
      8 S          64.0614   86.0747   15.7100 S.2     1  UNL1       -0.0519
      9 C          63.8771   84.8556   14.8558 C.ar    1  UNL1        0.0527
     10 C          64.5779   84.3829   13.6167 C.ar    1  UNL1        0.0450
     11 H          62.2095   86.8992   18.6116 H       1  UNL1        0.1442
     12 H          63.4733   87.8266   17.9404 H       1  UNL1        0.1442
     13 O          64.8678   82.6217   11.7287 O.3     1  UNL1       -0.4706
     14 C          64.1902   82.7327   10.3952 C.3     1  UNL1        0.2320
     15 C          61.7355   86.3748    9.4151 C.ar    1  UNL1        0.0684
     16 C          62.6497   85.7861    8.3817 C.ar    1  UNL1        0.0101
     17 C          63.4679   84.5721    8.7084 C.ar    1  UNL1       -0.0000
     18 C          63.3719   83.9468   10.0684 C.ar    1  UNL1        0.0212
     19 C          62.4577   84.5354   11.1018 C.ar    1  UNL1       -0.0000
     20 C          61.6396   85.7494   10.7751 C.ar    1  UNL1        0.0101
     21 N          60.0991   88.8027    8.7616 N.1     1  UNL1       -0.1908
     22 C          60.9173   87.5888    9.0883 C.1     1  UNL1        0.1004
@<TRIPOS>BOND
     1    21    22    3
     2    22    15    1
     3    15    16   ar
     4    16    17   ar
     5    17    18   ar
     6    18    14    1
     7    14    13    1
     8    13     1    1
     9     1     2   ar
    10     2     3   ar
    11     3     4   ar
    12     4     5   ar
    13     5     6   ar
    14     6     7    1
    15     6     8   ar
    16     8     9   ar
    17     9    10   ar
    18    18    19   ar
    19    19    20   ar
    20    20    15   ar
    21    10     1   ar
    22     9     4   ar
    23     7    11    1
    24     7    12    1
@<TRIPOS>MOLECULE
*****
 22 24 0 0 0
SMALL
GASTEIGER

@<TRIPOS>ATOM
      1 C          63.8390   88.4833   15.6765 C.ar    1  UNL1        0.1397
      2 C          63.0934   88.0920   16.9178 C.ar    1  UNL1        0.0385
      3 C          62.7854   86.6484   17.1839 C.ar    1  UNL1        0.0228
      4 C          63.2230   85.5960   16.2087 C.ar    1  UNL1        0.0894
      5 N          63.0637   84.1044   16.2030 N.ar    1  UNL1       -0.2245
      6 C          63.7108   83.5739   14.9581 C.ar    1  UNL1        0.1567
      7 N          63.7856   82.1328   14.5487 N.pl3   1  UNL1       -0.3375
      8 S          64.2701   84.7376   14.1945 S.2     1  UNL1       -0.0519
      9 C          63.9686   85.9873   14.9674 C.ar    1  UNL1        0.0527
     10 C          64.2766   87.4309   14.7013 C.ar    1  UNL1        0.0450
     11 H          63.3864   81.4374   15.1199 H       1  UNL1        0.1442
     12 H          64.2340   81.8823   13.7088 H       1  UNL1        0.1442
     13 O          64.1471   89.9271   15.4103 O.3     1  UNL1       -0.4706
     14 C          63.5915   90.5999   14.1902 C.3     1  UNL1        0.2320
     15 C          66.3548   92.6886   11.3176 C.ar    1  UNL1        0.0684
     16 C          65.0069   92.2202   10.8553 C.ar    1  UNL1        0.0101
     17 C          64.0858   91.5240   11.8129 C.ar    1  UNL1       -0.0000
     18 C          64.5126   91.2962   13.2327 C.ar    1  UNL1        0.0212
     19 C          65.8606   91.7646   13.6949 C.ar    1  UNL1       -0.0000
     20 C          66.7816   92.4608   12.7374 C.ar    1  UNL1        0.0101
     21 N          68.1970   94.0810    9.4025 N.1     1  UNL1       -0.1908
     22 C          67.2759   93.3848   10.3601 C.1     1  UNL1        0.1004
@<TRIPOS>BOND
     1    21    22    3
     2    22    15    1
     3    15    16   ar
     4    16    17   ar
     5    17    18   ar
     6    18    14    1
     7    14    13    1
     8    13     1    1
     9     1     2   ar
    10     2     3   ar
    11     3     4   ar
    12     4     5   ar
    13     5     6   ar
    14     6     7    1
    15     6     8   ar
    16     8     9   ar
    17     9    10   ar
    18    18    19   ar
    19    19    20   ar
    20    20    15   ar
    21    10     1   ar
    22     9     4   ar
    23     7    11    1
    24     7    12    1
@<TRIPOS>MOLECULE
*****
 22 24 0 0 0
SMALL
GASTEIGER

@<TRIPOS>ATOM
      1 C          63.1562   83.8749   12.9915 C.ar    1  UNL1        0.1397
      2 C          64.0138   83.2270   11.9453 C.ar    1  UNL1        0.0385
      3 C          63.8911   83.6457   10.5102 C.ar    1  UNL1        0.0228
      4 C          62.9107   84.7122   10.1213 C.ar    1  UNL1        0.0894
      5 N          62.5700   85.3275    8.7963 N.ar    1  UNL1       -0.2245
      6 C          61.5018   86.3557    9.0237 C.ar    1  UNL1        0.1567
      7 N          60.8649   87.2132    7.9705 N.pl3   1  UNL1       -0.3375
      8 S          61.1823   86.3758   10.4891 S.2     1  UNL1       -0.0519
      9 C          62.0530   85.3601   11.1674 C.ar    1  UNL1        0.0527
     10 C          62.1758   84.9415   12.6026 C.ar    1  UNL1        0.0450
     11 H          61.1434   87.1263    7.0302 H       1  UNL1        0.1442
     12 H          60.1684   87.8628    8.2196 H       1  UNL1        0.1442
     13 O          63.2789   83.4563   14.4267 O.3     1  UNL1       -0.4706
     14 C          64.2102   84.1905   15.3451 C.3     1  UNL1        0.2320
     15 C          63.6466   88.5959   16.0696 C.ar    1  UNL1        0.0684
     16 C          63.0564   87.5978   17.0212 C.ar    1  UNL1        0.0101
     17 C          63.2442   86.1293   16.7797 C.ar    1  UNL1       -0.0000
     18 C          64.0223   85.6590   15.5867 C.ar    1  UNL1        0.0212
     19 C          64.6125   86.6571   14.6351 C.ar    1  UNL1       -0.0000
     20 C          64.4246   88.1256   14.8766 C.ar    1  UNL1        0.0101
     21 N          63.2708   91.5328   16.5527 N.1     1  UNL1       -0.1908
     22 C          63.4587   90.0644   16.3112 C.1     1  UNL1        0.1004
@<TRIPOS>BOND
     1    21    22    3
     2    22    15    1
     3    15    16   ar
     4    16    17   ar
     5    17    18   ar
     6    18    14    1
     7    14    13    1
     8    13     1    1
     9     1     2   ar
    10     2     3   ar
    11     3     4   ar
    12     4     5   ar
    13     5     6   ar
    14     6     7    1
    15     6     8   ar
    16     8     9   ar
    17     9    10   ar
    18    18    19   ar
    19    19    20   ar
    20    20    15   ar
    21    10     1   ar
    22     9     4   ar
    23     7    11    1
    24     7    12    1
@<TRIPOS>MOLECULE
*****
 22 24 0 0 0
SMALL
GASTEIGER

@<TRIPOS>ATOM
      1 C          63.6058   87.0216   13.3434 C.ar    1  UNL1        0.1397
      2 C          64.2990   86.9678   14.6725 C.ar    1  UNL1        0.0385
      3 C          64.4960   85.6508   15.3628 C.ar    1  UNL1        0.0228
      4 C          63.9998   84.3876   14.7240 C.ar    1  UNL1        0.0894
      5 N          64.0498   82.9541   15.1631 N.ar    1  UNL1       -0.2245
      6 C          63.3874   82.1220   14.1053 C.ar    1  UNL1        0.1567
      7 N          63.2146   80.6322   14.1351 N.pl3   1  UNL1       -0.3375
      8 S          62.9281   83.0412   13.0125 S.2     1  UNL1       -0.0519
      9 C          63.3066   84.4414   13.3949 C.ar    1  UNL1        0.0527
     10 C          63.1096   85.7584   12.7046 C.ar    1  UNL1        0.0450
     11 H          63.5520   80.1127   14.9003 H       1  UNL1        0.1442
     12 H          62.7639   80.1740   13.3894 H       1  UNL1        0.1442
     13 O          63.4088   88.3387   12.6530 O.3     1  UNL1       -0.4706
     14 C          63.5346   89.6174   13.4270 C.3     1  UNL1        0.2320
     15 C          65.7026   93.1292   11.6333 C.ar    1  UNL1        0.0684
     16 C          65.9999   92.7033   13.0405 C.ar    1  UNL1        0.0101
     17 C          65.2773   91.5327   13.6384 C.ar    1  UNL1       -0.0000
     18 C          64.2573   90.7880   12.8291 C.ar    1  UNL1        0.0212
     19 C          63.9600   91.2139   11.4219 C.ar    1  UNL1       -0.0000
     20 C          64.6826   92.3845   10.8240 C.ar    1  UNL1        0.0101
     21 N          67.1480   95.4704   10.4376 N.1     1  UNL1       -0.1908
     22 C          66.4253   94.2998   11.0355 C.1     1  UNL1        0.1004
@<TRIPOS>BOND
     1    21    22    3
     2    22    15    1
     3    15    16   ar
     4    16    17   ar
     5    17    18   ar
     6    18    14    1
     7    14    13    1
     8    13     1    1
     9     1     2   ar
    10     2     3   ar
    11     3     4   ar
    12     4     5   ar
    13     5     6   ar
    14     6     7    1
    15     6     8   ar
    16     8     9   ar
    17     9    10   ar
    18    18    19   ar
    19    19    20   ar
    20    20    15   ar
    21    10     1   ar
    22     9     4   ar
    23     7    11    1
    24     7    12    1
