@<TRIPOS>MOLECULE
*****
 62 69 0 0 0
SMALL
GASTEIGER

@<TRIPOS>ATOM
      1 N          58.2882   96.0287   -3.6793 N.3     1  UNL1       -0.1862
      2 C          59.7539   96.2472   -3.9114 C.3     1  UNL1        0.1775
      3 C          60.7467   95.8569   -2.8568 C.2     1  UNL1        0.2452
      4 O          62.2124   96.0754   -3.0889 O.2     1  UNL1       -0.2732
      5 N          60.2737   95.2481   -1.5701 N.am    1  UNL1       -0.2541
      6 C          61.2664   94.8578   -0.5155 C.3     1  UNL1        0.1577
      7 C          60.7934   94.2491    0.7712 C.2     1  UNL1        0.2445
      8 O          61.7861   93.8588    1.8258 O.2     1  UNL1       -0.2731
      9 N          59.3276   94.0306    1.0034 N.am    1  UNL1       -0.2705
     10 C          58.3349   94.4209   -0.0512 C.3     1  UNL1        0.1359
     11 C          58.8080   95.0296   -1.3380 C.3     1  UNL1        0.1908
     12 N          57.8152   95.4199   -2.3926 N.am    1  UNL1       -0.1863
     13 C          56.3495   95.2014   -2.1604 C.2     1  UNL1        0.3191
     14 O          55.8765   94.5927   -0.8737 O.2     1  UNL1       -0.2512
     15 N          55.3567   95.5917   -3.2150 N.am    1  UNL1       -0.2836
     16 H          55.6672   95.9913   -4.0595 H       1  UNL1        0.1513
     17 C          57.2955   96.4190   -4.7339 C.3     1  UNL1        0.1188
     18 C          57.0273   94.2767   -6.1790 C.2     1  UNL1       -0.0034
     19 C          57.3197   95.7441   -6.0732 C.2     1  UNL1       -0.0071
     20 C          62.7321   95.0763   -0.7476 C.3     1  UNL1        0.0556
     21 C          63.4061   94.4471   -1.9308 C.ar    1  UNL1       -0.0198
     22 C          64.4173   95.2252   -2.7193 C.ar    1  UNL1       -0.0011
     23 C          65.0913   94.5961   -3.9025 C.ar    1  UNL1        0.0363
     24 C          64.7540   93.1888   -4.2971 C.ar    1  UNL1        0.1337
     25 O          65.4279   92.5597   -5.4803 O.3     1  UNL1       -0.5055
     26 C          63.7427   92.4106   -3.5086 C.ar    1  UNL1        0.0363
     27 C          63.0687   93.0398   -2.3254 C.ar    1  UNL1       -0.0011
     28 H          66.0596   93.0458   -5.9729 H       1  UNL1        0.2922
     29 C          58.8546   93.4218    2.2901 C.3     1  UNL1        0.1217
     30 C          59.7694   92.5338    3.0806 C.ar    1  UNL1        0.0135
     31 C          61.2239   92.4481    2.7243 C.ar    1  UNL1       -0.0012
     32 C          62.1386   91.5602    3.5147 C.ar    1  UNL1       -0.0002
     33 C          61.5989   90.7581    4.6615 C.ar    1  UNL1        0.0015
     34 C          60.1443   90.8438    5.0178 C.ar    1  UNL1        0.0170
     35 C          59.3319   90.1761    6.0874 C.ar    1  UNL1        0.0186
     36 C          57.9151   90.6513    5.9581 C.ar    1  UNL1        0.0759
     37 N          57.8519   91.6127    4.8085 N.ar    1  UNL1       -0.3242
     38 C          56.6261   92.3294    4.3249 C.3     1  UNL1        0.1305
     39 C          59.2296   91.7317    4.2274 C.ar    1  UNL1        0.0575
     40 C          59.8461   89.2038    7.1075 C.ar    1  UNL1        0.0016
     41 C          60.5196   89.7063    8.3500 C.ar    1  UNL1        0.0013
     42 C          61.0337   88.7340    9.3699 C.ar    1  UNL1        0.0147
     43 C          60.8745   87.2592    9.1473 C.ar    1  UNL1        0.0516
     44 C          60.2010   86.7566    7.9047 C.ar    1  UNL1        0.0147
     45 C          59.6869   87.7289    6.8849 C.ar    1  UNL1        0.0013
     46 N          61.3887   86.2869   10.1672 N.am    1  UNL1       -0.2681
     47 C          62.4900   85.3343    9.8071 C.2     1  UNL1        0.3078
     48 O          63.0772   85.3541    8.4270 O.2     1  UNL1       -0.2522
     49 N          63.0041   84.3621   10.8271 N.am    1  UNL1       -0.2588
     50 C          64.1055   83.4096   10.4669 C.3     1  UNL1        0.1270
     51 C          64.6196   82.4374   11.4869 C.3     1  UNL1        0.1637
     52 O          64.0325   82.4177   12.8670 O.3     1  UNL1       -0.3501
     53 C          62.9312   83.3702   13.2272 C.3     1  UNL1        0.1637
     54 C          62.4170   84.3424   12.2073 C.3     1  UNL1        0.1270
     55 H          61.0033   86.2740   11.0731 H       1  UNL1        0.1564
     56 C          53.8910   95.3733   -2.9829 C.3     1  UNL1        0.1177
     57 C          52.8913   95.8633   -3.9881 C.ar    1  UNL1       -0.0025
     58 C          53.3165   96.1255   -5.4024 C.ar    1  UNL1       -0.0026
     59 C          52.3167   96.6155   -6.4076 C.ar    1  UNL1       -0.0003
     60 C          50.8918   96.8435   -5.9983 C.ar    1  UNL1       -0.0000
     61 C          50.4665   96.5814   -4.5839 C.ar    1  UNL1       -0.0003
     62 C          51.4663   96.0913   -3.5788 C.ar    1  UNL1       -0.0026
@<TRIPOS>BOND
     1    18    19    2
     2    19    17    1
     3    17     1    1
     4     1     2    1
     5     2     3    1
     6     3     4    2
     7     3     5   am
     8     5     6    1
     9     6    20    1
    10    20    21    1
    11    21    22   ar
    12    22    23   ar
    13    23    24   ar
    14    24    25    1
    15    24    26   ar
    16    26    27   ar
    17     6     7    1
    18     7     8    2
    19     7     9   am
    20     9    29    1
    21    29    30    1
    22    30    31   ar
    23    31    32   ar
    24    32    33   ar
    25    33    34   ar
    26    34    35   ar
    27    35    40    1
    28    40    41   ar
    29    41    42   ar
    30    42    43   ar
    31    43    46    1
    32    46    47   am
    33    47    48    2
    34    47    49   am
    35    49    50    1
    36    50    51    1
    37    51    52    1
    38    52    53    1
    39    53    54    1
    40    43    44   ar
    41    44    45   ar
    42    35    36   ar
    43    36    37   ar
    44    37    38    1
    45    37    39   ar
    46     9    10    1
    47    11    10    1
    48    11    12    1
    49    12    13   am
    50    13    14    2
    51    13    15   am
    52    15    56    1
    53    56    57    1
    54    57    58   ar
    55    58    59   ar
    56    59    60   ar
    57    60    61   ar
    58    61    62   ar
    59    12     1    1
    60    62    57   ar
    61    11     5    1
    62    27    21   ar
    63    39    30   ar
    64    39    34   ar
    65    45    40   ar
    66    54    49    1
    67    25    28    1
    68    46    55    1
    69    15    16    1
