@<TRIPOS>MOLECULE
*****
 46 48 0 0 0
SMALL
GASTEIGER

@<TRIPOS>ATOM
      1 C          61.9056   88.3000   10.9177 C.ar    1  UNL1        0.0530
      2 S          61.1902   88.9503    9.7709 S.2     1  UNL1       -0.0619
      3 C          60.4048   87.8920    9.0544 C.ar    1  UNL1        0.1641
      4 N          60.6348   86.5877    9.7585 N.ar    1  UNL1       -0.2291
      5 C          61.5623   86.8398   10.9101 C.ar    1  UNL1        0.1413
      6 C          62.0593   85.8122   11.8832 C.2     1  UNL1        0.2672
      7 O          61.7005   85.9194   13.3358 O.2     1  UNL1       -0.2682
      8 N          62.9151   84.6774   11.4039 N.am    1  UNL1       -0.2765
      9 C          63.4121   83.6497   12.3770 C.3     1  UNL1        0.0937
     10 C          64.2678   82.5149   11.8976 C.3     1  UNL1        0.0216
     11 C          64.6267   82.4077   10.4452 C.3     1  UNL1        0.0035
     12 C          64.1297   83.4353    9.4720 C.3     1  UNL1        0.0199
     13 C          63.2739   84.5701    9.9514 C.3     1  UNL1        0.0757
     14 C          62.7769   85.5978    8.9783 C.3     1  UNL1        0.0215
     15 C          64.6071   90.3668   13.8639 C.ar    1  UNL1        0.1491
     16 C          64.3325   88.8985   14.0002 C.ar    1  UNL1        0.0222
     17 C          63.4320   88.2095   13.0182 C.ar    1  UNL1        0.0019
     18 C          62.8061   88.9889   11.8998 C.ar    1  UNL1        0.0112
     19 C          63.0807   90.4572   11.7635 C.ar    1  UNL1        0.0729
     20 C          63.9812   91.1461   12.7456 C.ar    1  UNL1        0.1599
     21 F          64.2559   92.6145   12.6092 F       1  UNL1       -0.2029
     22 S          65.5077   91.0557   14.8460 S.O2    1  UNL1        0.0626
     23 O          66.7067   90.5762   14.0829 O.2     1  UNL1       -0.1529
     24 O          64.3086   91.5352   15.6091 O.2     1  UNL1       -0.1529
     25 N          66.4082   91.7446   15.8281 N.3     1  UNL1       -0.1723
     26 H          65.8242   92.0270   16.6152 H       1  UNL1        0.1491
     27 C          67.1866   92.9566   15.4096 C.3     1  UNL1        0.1700
     28 C          68.5493   93.2079   15.9840 C.3     1  UNL1        0.4118
     29 F          69.9120   93.4592   16.5583 F       1  UNL1       -0.1685
     30 F          68.7451   91.7318   16.1654 F       1  UNL1       -0.1685
     31 F          68.3535   94.6840   15.8026 F       1  UNL1       -0.1685
     32 C          66.8566   93.7280   12.9507 C.3     1  UNL1        0.0018
     33 C          66.6023   93.9173   14.4168 C.3     1  UNL1        0.0261
     34 C          62.4548   91.2367   10.6451 C.3     1  UNL1        0.3432
     35 F          60.9894   91.5550   10.6811 F       1  UNL1       -0.1932
     36 F          63.2944   91.6978    9.4907 F       1  UNL1       -0.1932
     37 C          59.5411   88.1014    7.8461 C.2     1  UNL1        0.2699
     38 O          58.6861   86.9812    7.3320 O.2     1  UNL1       -0.2679
     39 N          59.5323   89.4310    7.1517 N.am    1  UNL1       -0.2969
     40 H          60.0935   90.1662    7.4891 H       1  UNL1        0.1499
     41 C          58.6686   89.6403    5.9434 C.3     1  UNL1        0.1166
     42 C          58.6892   90.9576    5.2259 C.3     1  UNL1        0.1064
     43 C          60.1890   90.9306    5.2194 C.3     1  UNL1        0.0311
     44 C          57.1894   90.9844    5.2324 C.3     1  UNL1        0.0311
     45 O          58.7097   92.2747    4.5085 O.3     1  UNL1       -0.3851
     46 H          59.6285   92.5422    4.3499 H       1  UNL1        0.2103
@<TRIPOS>BOND
     1    32    33    1
     2    27    33    1
     3    27    25    1
     4    25    22    1
     5    22    23    2
     6    22    24    2
     7    22    15    1
     8    15    16   ar
     9    16    17   ar
    10    17    18   ar
    11    18     1    1
    12     1     2   ar
    13     2     3   ar
    14     3    37    1
    15    37    38    2
    16    37    39   am
    17    39    41    1
    18    41    42    1
    19    42    43    1
    20    42    44    1
    21    42    45    1
    22     3     4   ar
    23     4     5   ar
    24     5     6    1
    25     6     7    2
    26     6     8   am
    27     8     9    1
    28     9    10    1
    29    10    11    1
    30    11    12    1
    31    12    13    1
    32    13    14    1
    33    18    19   ar
    34    19    34    1
    35    34    35    1
    36    34    36    1
    37    19    20   ar
    38    20    21    1
    39    27    28    1
    40    28    29    1
    41    28    30    1
    42    28    31    1
    43    20    15   ar
    44     5     1   ar
    45    13     8    1
    46    25    26    1
    47    39    40    1
    48    45    46    1
@<TRIPOS>MOLECULE
*****
 46 48 0 0 0
SMALL
GASTEIGER

@<TRIPOS>ATOM
      1 C          63.2476   88.9479   12.4668 C.ar    1  UNL1        0.0530
      2 S          64.4112   89.8893   12.5667 S.2     1  UNL1       -0.0619
      3 C          63.9549   91.2411   12.1034 C.ar    1  UNL1        0.1641
      4 N          62.5093   91.1351   11.7172 N.ar    1  UNL1       -0.2291
      5 C          62.0722   89.7179   11.9418 C.ar    1  UNL1        0.1413
      6 C          60.7005   89.1673   11.6862 C.2     1  UNL1        0.2672
      7 O          59.6158   89.3534   12.7055 O.2     1  UNL1       -0.2682
      8 N          60.4135   88.4307   10.4116 N.am    1  UNL1       -0.2765
      9 C          59.0418   87.8802   10.1560 C.3     1  UNL1        0.0937
     10 C          58.7548   87.1436    8.8812 C.3     1  UNL1        0.0216
     11 C          59.8394   86.9575    7.8620 C.3     1  UNL1        0.0035
     12 C          61.2112   87.5080    8.1175 C.3     1  UNL1        0.0199
     13 C          61.4982   88.2446    9.3922 C.3     1  UNL1        0.0757
     14 C          62.8699   88.7952    9.6478 C.3     1  UNL1        0.0215
     15 C          63.2778   84.5807   13.5516 C.ar    1  UNL1        0.1491
     16 C          62.7939   85.0144   12.1997 C.ar    1  UNL1        0.0222
     17 C          62.7839   86.4701   11.8381 C.ar    1  UNL1        0.0019
     18 C          63.2577   87.4922   12.8284 C.ar    1  UNL1        0.0112
     19 C          63.7416   87.0586   14.1803 C.ar    1  UNL1        0.0729
     20 C          63.7517   85.6028   14.5419 C.ar    1  UNL1        0.1599
     21 F          64.2357   85.1692   15.8939 F       1  UNL1       -0.2029
     22 S          63.2879   83.1250   13.9132 S.O2    1  UNL1        0.0626
     23 O          64.6013   82.9589   13.2079 O.2     1  UNL1       -0.1529
     24 O          61.9746   83.2911   14.6185 O.2     1  UNL1       -0.1529
     25 N          63.2980   81.6693   14.2748 N.3     1  UNL1       -0.1723
     26 H          64.2551   81.3408   14.1470 H       1  UNL1        0.1491
     27 C          62.4089   80.7084   13.5425 C.3     1  UNL1        0.1700
     28 C          62.6275   80.4490   12.0814 C.3     1  UNL1        0.4118
     29 F          62.8460   80.1895   10.6202 F       1  UNL1       -0.1685
     30 F          62.2945   81.8796   11.7775 F       1  UNL1       -0.1685
     31 F          62.9604   79.0183   12.3852 F       1  UNL1       -0.1685
     32 C          59.8947   80.5176   14.1688 C.3     1  UNL1        0.0018
     33 C          61.3013   80.0070   14.2714 C.3     1  UNL1        0.0261
     34 C          64.2155   88.0807   15.1707 C.3     1  UNL1        0.3432
     35 F          63.4748   88.2750   16.4605 F       1  UNL1       -0.1932
     36 F          65.4301   88.9084   14.8712 F       1  UNL1       -0.1932
     37 C          64.7965   92.4810   12.0379 C.2     1  UNL1        0.2699
     38 O          65.3915   93.0508   13.2914 O.2     1  UNL1       -0.2679
     39 N          65.0430   93.1512   10.7188 N.am    1  UNL1       -0.2969
     40 H          64.6525   92.7773    9.8960 H       1  UNL1        0.1499
     41 C          65.8845   94.3912   10.6532 C.3     1  UNL1        0.1166
     42 C          67.2258   94.3527    9.9826 C.3     1  UNL1        0.1064
     43 C          67.2666   92.8625   10.1498 C.3     1  UNL1        0.0311
     44 C          67.1849   95.8428    9.8154 C.3     1  UNL1        0.0311
     45 O          68.5670   94.3142    9.3119 O.3     1  UNL1       -0.3851
     46 H          68.8810   93.3974    9.2693 H       1  UNL1        0.2103
@<TRIPOS>BOND
     1    32    33    1
     2    27    33    1
     3    27    25    1
     4    25    22    1
     5    22    23    2
     6    22    24    2
     7    22    15    1
     8    15    16   ar
     9    16    17   ar
    10    17    18   ar
    11    18     1    1
    12     1     2   ar
    13     2     3   ar
    14     3    37    1
    15    37    38    2
    16    37    39   am
    17    39    41    1
    18    41    42    1
    19    42    43    1
    20    42    44    1
    21    42    45    1
    22     3     4   ar
    23     4     5   ar
    24     5     6    1
    25     6     7    2
    26     6     8   am
    27     8     9    1
    28     9    10    1
    29    10    11    1
    30    11    12    1
    31    12    13    1
    32    13    14    1
    33    18    19   ar
    34    19    34    1
    35    34    35    1
    36    34    36    1
    37    19    20   ar
    38    20    21    1
    39    27    28    1
    40    28    29    1
    41    28    30    1
    42    28    31    1
    43    20    15   ar
    44     5     1   ar
    45    13     8    1
    46    25    26    1
    47    39    40    1
    48    45    46    1
@<TRIPOS>MOLECULE
*****
 46 48 0 0 0
SMALL
GASTEIGER

@<TRIPOS>ATOM
      1 C          62.9426   88.2947   12.1408 C.ar    1  UNL1        0.0530
      2 S          63.4154   87.1198   12.9445 S.2     1  UNL1       -0.0619
      3 C          62.3770   86.0419   12.8448 C.ar    1  UNL1        0.1641
      4 N          61.2624   86.5507   11.9794 N.ar    1  UNL1       -0.2291
      5 C          61.6120   87.9430   11.5443 C.ar    1  UNL1        0.1413
      6 C          60.7775   88.8282   10.6668 C.2     1  UNL1        0.2672
      7 O          60.3769   90.1932   11.1427 O.2     1  UNL1       -0.2682
      8 N          60.3435   88.3485    9.3136 N.am    1  UNL1       -0.2765
      9 C          59.5089   89.2336    8.4361 C.3     1  UNL1        0.0937
     10 C          59.0749   88.7538    7.0828 C.3     1  UNL1        0.0216
     11 C          59.4754   87.3889    6.6069 C.3     1  UNL1        0.0035
     12 C          60.3100   86.5036    7.4844 C.3     1  UNL1        0.0199
     13 C          60.7440   86.9834    8.8377 C.3     1  UNL1        0.0757
     14 C          61.5785   86.0983    9.7152 C.3     1  UNL1        0.0215
     15 C          65.1318   92.1906   11.6118 C.ar    1  UNL1        0.1491
     16 C          64.4900   91.5246   10.4309 C.ar    1  UNL1        0.0222
     17 C          63.7603   90.2259   10.6073 C.ar    1  UNL1        0.0019
     18 C          63.6724   89.5933   11.9645 C.ar    1  UNL1        0.0112
     19 C          64.3141   90.2594   13.1453 C.ar    1  UNL1        0.0729
     20 C          65.0438   91.5580   12.9690 C.ar    1  UNL1        0.1599
     21 F          65.6855   92.2241   14.1500 F       1  UNL1       -0.2029
     22 S          65.8615   93.4892   11.4355 S.O2    1  UNL1        0.0626
     23 O          64.7580   93.9892   10.5510 O.2     1  UNL1       -0.1529
     24 O          66.9650   92.9892   12.3200 O.2     1  UNL1       -0.1529
     25 N          66.5912   94.7879   11.2592 N.3     1  UNL1       -0.1723
     26 H          65.9209   95.5312   11.4553 H       1  UNL1        0.1491
     27 C          67.2294   95.1167    9.9422 C.3     1  UNL1        0.1700
     28 C          67.7880   94.0200    9.0848 C.3     1  UNL1        0.4118
     29 F          68.3465   92.9232    8.2274 F       1  UNL1       -0.1685
     30 F          66.6708   94.2181    8.1037 F       1  UNL1       -0.1685
     31 F          68.9052   93.8219   10.0659 F       1  UNL1       -0.1685
     32 C          67.4076   96.8541    8.0187 C.3     1  UNL1        0.0018
     33 C          67.3092   96.5424    9.4826 C.3     1  UNL1        0.0261
     34 C          64.2261   89.6268   14.5026 C.3     1  UNL1        0.3432
     35 F          63.1783   90.0808   15.4752 F       1  UNL1       -0.1932
     36 F          65.1860   88.5402   14.8873 F       1  UNL1       -0.1932
     37 C          62.4418   84.6922   13.4961 C.2     1  UNL1        0.2699
     38 O          62.0408   84.5326   14.9327 O.2     1  UNL1       -0.2679
     39 N          62.9077   83.5022   12.7108 N.am    1  UNL1       -0.2969
     40 H          63.1709   83.6069   11.7679 H       1  UNL1        0.1499
     41 C          62.9725   82.1525   13.3621 C.3     1  UNL1        0.1166
     42 C          62.8185   80.9116   12.5333 C.3     1  UNL1        0.1064
     43 C          62.2865   80.1789   13.7292 C.3     1  UNL1        0.0311
     44 C          63.3506   81.6445   11.3375 C.3     1  UNL1        0.0311
     45 O          62.6646   79.6709   11.7045 O.3     1  UNL1       -0.3851
     46 H          62.3071   78.9567   12.2550 H       1  UNL1        0.2103
@<TRIPOS>BOND
     1    32    33    1
     2    27    33    1
     3    27    25    1
     4    25    22    1
     5    22    23    2
     6    22    24    2
     7    22    15    1
     8    15    16   ar
     9    16    17   ar
    10    17    18   ar
    11    18     1    1
    12     1     2   ar
    13     2     3   ar
    14     3    37    1
    15    37    38    2
    16    37    39   am
    17    39    41    1
    18    41    42    1
    19    42    43    1
    20    42    44    1
    21    42    45    1
    22     3     4   ar
    23     4     5   ar
    24     5     6    1
    25     6     7    2
    26     6     8   am
    27     8     9    1
    28     9    10    1
    29    10    11    1
    30    11    12    1
    31    12    13    1
    32    13    14    1
    33    18    19   ar
    34    19    34    1
    35    34    35    1
    36    34    36    1
    37    19    20   ar
    38    20    21    1
    39    27    28    1
    40    28    29    1
    41    28    30    1
    42    28    31    1
    43    20    15   ar
    44     5     1   ar
    45    13     8    1
    46    25    26    1
    47    39    40    1
    48    45    46    1
@<TRIPOS>MOLECULE
*****
 46 48 0 0 0
SMALL
GASTEIGER

@<TRIPOS>ATOM
      1 C          63.9737   89.1889   14.5168 C.ar    1  UNL1        0.0530
      2 S          65.2166   89.9235   14.9240 S.2     1  UNL1       -0.0619
      3 C          65.0045   91.3824   14.6471 C.ar    1  UNL1        0.1641
      4 N          63.6306   91.5495   14.0688 N.ar    1  UNL1       -0.2291
      5 C          62.9935   90.1939   13.9883 C.ar    1  UNL1        0.1413
      6 C          61.6178   89.8956   13.4702 C.2     1  UNL1        0.2672
      7 O          60.4877   89.6687   14.4302 O.2     1  UNL1       -0.2682
      8 N          61.3721   89.8242   11.9923 N.am    1  UNL1       -0.2765
      9 C          59.9964   89.5259   11.4742 C.3     1  UNL1        0.0937
     10 C          59.7507   89.4545    9.9962 C.3     1  UNL1        0.0216
     11 C          60.8807   89.6813    9.0362 C.3     1  UNL1        0.0035
     12 C          62.2565   89.9796    9.5542 C.3     1  UNL1        0.0199
     13 C          62.5021   90.0510   11.0322 C.3     1  UNL1        0.0757
     14 C          63.8779   90.3493   11.5503 C.3     1  UNL1        0.0215
     15 C          63.3034   84.7499   14.8265 C.ar    1  UNL1        0.1491
     16 C          63.7699   85.3495   13.5332 C.ar    1  UNL1        0.0222
     17 C          63.9934   86.8292   13.4300 C.ar    1  UNL1        0.0019
     18 C          63.7503   87.7092   14.6201 C.ar    1  UNL1        0.0112
     19 C          63.2837   87.1096   15.9134 C.ar    1  UNL1        0.0729
     20 C          63.0603   85.6300   16.0166 C.ar    1  UNL1        0.1599
     21 F          62.5937   85.0303   17.3101 F       1  UNL1       -0.2029
     22 S          63.0800   83.2702   14.9298 S.O2    1  UNL1        0.0626
     23 O          61.6352   83.4637   14.5760 O.2     1  UNL1       -0.1529
     24 O          64.5247   83.0768   15.2836 O.2     1  UNL1       -0.1529
     25 N          62.8565   81.7906   15.0330 N.3     1  UNL1       -0.1723
     26 H          63.7179   81.3878   15.4020 H       1  UNL1        0.1491
     27 C          62.4974   80.9992   13.8104 C.3     1  UNL1        0.1700
     28 C          63.2093   81.2556   12.5152 C.3     1  UNL1        0.4118
     29 F          63.9211   81.5119   11.2200 F       1  UNL1       -0.1685
     30 F          64.4925   80.7746   13.1253 F       1  UNL1       -0.1685
     31 F          61.9261   81.7365   11.9052 F       1  UNL1       -0.1685
     32 C          60.0103   80.3458   14.1812 C.3     1  UNL1        0.0018
     33 C          61.4265   79.9514   13.8830 C.3     1  UNL1        0.0261
     34 C          63.0406   87.9897   17.1036 C.3     1  UNL1        0.3432
     35 F          62.8012   89.4582   16.9140 F       1  UNL1       -0.1932
     36 F          63.0370   87.4011   18.4833 F       1  UNL1       -0.1932
     37 C          65.9929   92.4812   14.9035 C.2     1  UNL1        0.2699
     38 O          65.9978   93.7035   14.0340 O.2     1  UNL1       -0.2679
     39 N          66.9763   92.3577   16.0294 N.am    1  UNL1       -0.2969
     40 H          66.9730   91.5555   16.6000 H       1  UNL1        0.1499
     41 C          67.9646   93.4565   16.2858 C.3     1  UNL1        0.1166
     42 C          69.2475   93.5074   15.5099 C.3     1  UNL1        0.1064
     43 C          69.5002   94.8956   16.0190 C.3     1  UNL1        0.0311
     44 C          68.9947   92.1192   15.0009 C.3     1  UNL1        0.0311
     45 O          70.5302   93.5583   14.7341 O.3     1  UNL1       -0.3851
     46 H          70.9609   94.4156   14.8772 H       1  UNL1        0.2103
@<TRIPOS>BOND
     1    32    33    1
     2    27    33    1
     3    27    25    1
     4    25    22    1
     5    22    23    2
     6    22    24    2
     7    22    15    1
     8    15    16   ar
     9    16    17   ar
    10    17    18   ar
    11    18     1    1
    12     1     2   ar
    13     2     3   ar
    14     3    37    1
    15    37    38    2
    16    37    39   am
    17    39    41    1
    18    41    42    1
    19    42    43    1
    20    42    44    1
    21    42    45    1
    22     3     4   ar
    23     4     5   ar
    24     5     6    1
    25     6     7    2
    26     6     8   am
    27     8     9    1
    28     9    10    1
    29    10    11    1
    30    11    12    1
    31    12    13    1
    32    13    14    1
    33    18    19   ar
    34    19    34    1
    35    34    35    1
    36    34    36    1
    37    19    20   ar
    38    20    21    1
    39    27    28    1
    40    28    29    1
    41    28    30    1
    42    28    31    1
    43    20    15   ar
    44     5     1   ar
    45    13     8    1
    46    25    26    1
    47    39    40    1
    48    45    46    1
@<TRIPOS>MOLECULE
*****
 46 48 0 0 0
SMALL
GASTEIGER

@<TRIPOS>ATOM
      1 C          63.4716   88.6353   13.6074 C.ar    1  UNL1        0.0530
      2 S          64.6169   89.2572   14.3499 S.2     1  UNL1       -0.0619
      3 C          64.2298   90.6617   14.7072 C.ar    1  UNL1        0.1641
      4 N          62.8452   90.9078   14.1854 N.ar    1  UNL1       -0.2291
      5 C          62.3766   89.6554   13.5057 C.ar    1  UNL1        0.1413
      6 C          61.0465   89.4579   12.8410 C.2     1  UNL1        0.2672
      7 O          59.8477   89.0796   13.6596 O.2     1  UNL1       -0.2682
      8 N          60.9150   89.6386   11.3578 N.am    1  UNL1       -0.2765
      9 C          59.5849   89.4411   10.6931 C.3     1  UNL1        0.0937
     10 C          59.4535   89.6218    9.2098 C.3     1  UNL1        0.0216
     11 C          60.6522   90.0001    8.3912 C.3     1  UNL1        0.0035
     12 C          61.9823   90.1976    9.0559 C.3     1  UNL1        0.0199
     13 C          62.1137   90.0169   10.5391 C.3     1  UNL1        0.0757
     14 C          63.4438   90.2144   11.2038 C.3     1  UNL1        0.0215
     15 C          63.3431   84.4450   11.9718 C.ar    1  UNL1        0.1491
     16 C          62.7619   85.5778   11.1788 C.ar    1  UNL1        0.0222
     17 C          62.8047   86.9746   11.7240 C.ar    1  UNL1        0.0019
     18 C          63.4288   87.2385   13.0622 C.ar    1  UNL1        0.0112
     19 C          64.0100   86.1058   13.8552 C.ar    1  UNL1        0.0729
     20 C          63.9672   84.7090   13.3100 C.ar    1  UNL1        0.1599
     21 F          64.5485   83.5762   14.1030 F       1  UNL1       -0.2029
     22 S          63.3003   83.0483   11.4266 S.O2    1  UNL1        0.0626
     23 O          64.7613   83.1320   11.0973 O.2     1  UNL1       -0.1529
     24 O          61.8393   82.9646   11.7558 O.2     1  UNL1       -0.1529
     25 N          63.2575   81.6515   10.8814 N.3     1  UNL1       -0.1723
     26 H          62.5568   81.6461   10.1401 H       1  UNL1        0.1491
     27 C          62.9361   80.5016   11.7893 C.3     1  UNL1        0.1700
     28 C          62.8516   80.7169   13.2713 C.3     1  UNL1        0.4118
     29 F          62.7671   80.9323   14.7534 F       1  UNL1       -0.1685
     30 F          61.3639   80.5344   13.2130 F       1  UNL1       -0.1685
     31 F          64.3393   80.8995   13.3296 F       1  UNL1       -0.1685
     32 C          62.7709   78.9234    9.7320 C.3     1  UNL1        0.0018
     33 C          62.6993   79.1361   11.2151 C.3     1  UNL1        0.0261
     34 C          64.6341   86.3697   15.1934 C.3     1  UNL1        0.3432
     35 F          66.1248   86.3135   15.3500 F       1  UNL1       -0.1932
     36 F          63.7674   86.6898   16.3751 F       1  UNL1       -0.1932
     37 C          65.0783   91.6470   15.4550 C.2     1  UNL1        0.2699
     38 O          64.5218   92.3597   16.6518 O.2     1  UNL1       -0.2679
     39 N          66.4833   91.9195   15.0059 N.am    1  UNL1       -0.2969
     40 H          66.8485   91.4517   14.2204 H       1  UNL1        0.1499
     41 C          67.3318   92.9048   15.7537 C.3     1  UNL1        0.1166
     42 C          68.7451   93.1589   15.3197 C.3     1  UNL1        0.1064
     43 C          68.8609   94.2542   16.3379 C.3     1  UNL1        0.0311
     44 C          68.6292   92.0634   14.3014 C.3     1  UNL1        0.0311
     45 O          70.1583   93.4128   14.8857 O.3     1  UNL1       -0.3851
     46 H          70.5336   94.1354   15.4129 H       1  UNL1        0.2103
@<TRIPOS>BOND
     1    32    33    1
     2    27    33    1
     3    27    25    1
     4    25    22    1
     5    22    23    2
     6    22    24    2
     7    22    15    1
     8    15    16   ar
     9    16    17   ar
    10    17    18   ar
    11    18     1    1
    12     1     2   ar
    13     2     3   ar
    14     3    37    1
    15    37    38    2
    16    37    39   am
    17    39    41    1
    18    41    42    1
    19    42    43    1
    20    42    44    1
    21    42    45    1
    22     3     4   ar
    23     4     5   ar
    24     5     6    1
    25     6     7    2
    26     6     8   am
    27     8     9    1
    28     9    10    1
    29    10    11    1
    30    11    12    1
    31    12    13    1
    32    13    14    1
    33    18    19   ar
    34    19    34    1
    35    34    35    1
    36    34    36    1
    37    19    20   ar
    38    20    21    1
    39    27    28    1
    40    28    29    1
    41    28    30    1
    42    28    31    1
    43    20    15   ar
    44     5     1   ar
    45    13     8    1
    46    25    26    1
    47    39    40    1
    48    45    46    1
@<TRIPOS>MOLECULE
*****
 46 48 0 0 0
SMALL
GASTEIGER

@<TRIPOS>ATOM
      1 C          62.2490   89.4883   10.3935 C.ar    1  UNL1        0.0530
      2 S          61.3315   90.0056    9.3256 S.2     1  UNL1       -0.0619
      3 C          60.4667   88.8690    8.8668 C.ar    1  UNL1        0.1641
      4 N          60.8499   87.6492    9.6512 N.ar    1  UNL1       -0.2291
      5 C          61.9514   88.0319   10.5947 C.ar    1  UNL1        0.1413
      6 C          62.6352   87.1186   11.5685 C.2     1  UNL1        0.2672
      7 O          62.8683   87.5672   12.9809 O.2     1  UNL1       -0.2682
      8 N          63.0859   85.7568   11.1302 N.am    1  UNL1       -0.2765
      9 C          63.7697   84.8435   12.1040 C.3     1  UNL1        0.0937
     10 C          64.2204   83.4817   11.6655 C.3     1  UNL1        0.0216
     11 C          63.9873   83.0331   10.2533 C.3     1  UNL1        0.0035
     12 C          63.3035   83.9463    9.2794 C.3     1  UNL1        0.0199
     13 C          62.8528   85.3082    9.7179 C.3     1  UNL1        0.0757
     14 C          62.1690   86.2215    8.7441 C.3     1  UNL1        0.0215
     15 C          65.3501   91.8845   12.6051 C.ar    1  UNL1        0.1491
     16 C          65.4982   91.6440   11.1320 C.ar    1  UNL1        0.0222
     17 C          64.4645   90.8453   10.3948 C.ar    1  UNL1        0.0019
     18 C          63.2827   90.2870   11.1307 C.ar    1  UNL1        0.0112
     19 C          63.1346   90.5275   12.6038 C.ar    1  UNL1        0.0729
     20 C          64.1683   91.3262   13.3410 C.ar    1  UNL1        0.1599
     21 F          64.0202   91.5667   14.8143 F       1  UNL1       -0.2029
     22 S          66.3838   92.6832   13.3423 S.O2    1  UNL1        0.0626
     23 O          65.4984   93.8921   13.2741 O.2     1  UNL1       -0.1529
     24 O          67.2693   91.4744   13.4106 O.2     1  UNL1       -0.1529
     25 N          67.4175   93.4820   14.0796 N.3     1  UNL1       -0.1723
     26 H          68.2816   93.4130   13.5419 H       1  UNL1        0.1491
     27 C          67.7615   93.1361   15.4980 C.3     1  UNL1        0.1700
     28 C          69.0198   93.6696   16.1161 C.3     1  UNL1        0.4118
     29 F          70.2781   94.2031   16.7342 F       1  UNL1       -0.1685
     30 F          68.6068   95.0650   15.7524 F       1  UNL1       -0.1685
     31 F          69.4327   92.2742   16.4798 F       1  UNL1       -0.1685
     32 C          65.5458   92.7979   16.8119 C.3     1  UNL1        0.0018
     33 C          66.8471   92.2568   16.2985 C.3     1  UNL1        0.0261
     34 C          61.9528   89.9692   13.3398 C.3     1  UNL1        0.3432
     35 F          62.0896   89.5571   14.7756 F       1  UNL1       -0.1932
     36 F          60.6341   89.8231   12.6400 F       1  UNL1       -0.1932
     37 C          59.4053   88.9399    7.8094 C.2     1  UNL1        0.2699
     38 O          58.4808   87.7781    7.5956 O.2     1  UNL1       -0.2679
     39 N          59.2683   90.1724    6.9656 N.am    1  UNL1       -0.2969
     40 H          59.8750   90.9349    7.1059 H       1  UNL1        0.1499
     41 C          58.2068   90.2433    5.9081 C.3     1  UNL1        0.1166
     42 C          58.2880   91.2859    4.8327 C.3     1  UNL1        0.1064
     43 C          56.7910   91.3791    4.8101 C.3     1  UNL1        0.0311
     44 C          59.7850   91.1927    4.8554 C.3     1  UNL1        0.0311
     45 O          58.3692   92.3285    3.7573 O.3     1  UNL1       -0.3851
     46 H          57.4740   92.6101    3.5117 H       1  UNL1        0.2103
@<TRIPOS>BOND
     1    32    33    1
     2    27    33    1
     3    27    25    1
     4    25    22    1
     5    22    23    2
     6    22    24    2
     7    22    15    1
     8    15    16   ar
     9    16    17   ar
    10    17    18   ar
    11    18     1    1
    12     1     2   ar
    13     2     3   ar
    14     3    37    1
    15    37    38    2
    16    37    39   am
    17    39    41    1
    18    41    42    1
    19    42    43    1
    20    42    44    1
    21    42    45    1
    22     3     4   ar
    23     4     5   ar
    24     5     6    1
    25     6     7    2
    26     6     8   am
    27     8     9    1
    28     9    10    1
    29    10    11    1
    30    11    12    1
    31    12    13    1
    32    13    14    1
    33    18    19   ar
    34    19    34    1
    35    34    35    1
    36    34    36    1
    37    19    20   ar
    38    20    21    1
    39    27    28    1
    40    28    29    1
    41    28    30    1
    42    28    31    1
    43    20    15   ar
    44     5     1   ar
    45    13     8    1
    46    25    26    1
    47    39    40    1
    48    45    46    1
