@<TRIPOS>MOLECULE
*****
 29 32 0 0 0
SMALL
GASTEIGER

@<TRIPOS>ATOM
      1 N          62.4120   87.4107   11.7070 N.ar    1  UNL1       -0.2644
      2 C          62.0962   88.0961   10.4106 C.ar    1  UNL1        0.2037
      3 N          62.6066   89.4825   10.1514 N.ar    1  UNL1       -0.2148
      4 C          63.4329   90.1837   11.1886 C.ar    1  UNL1        0.0887
      5 C          63.9433   91.5701   10.9294 C.ar    1  UNL1        0.0193
      6 C          64.7696   92.2712   11.9665 C.ar    1  UNL1        0.0015
      7 C          65.0855   91.5858   13.2628 C.ar    1  UNL1        0.0003
      8 C          64.5751   90.1994   13.5220 C.ar    1  UNL1        0.0063
      9 C          63.7488   89.4983   12.4849 C.ar    1  UNL1        0.0739
     10 C          63.2383   88.1118   12.7441 C.ar    1  UNL1        0.2645
     11 O          63.5542   87.4264   14.0404 O.2     1  UNL1       -0.2668
     12 N          61.2698   87.3949    9.3735 N.pl3   1  UNL1       -0.2781
     13 C          59.8072   87.7022    9.2463 C.3     1  UNL1        0.0937
     14 C          58.9809   87.0011    8.2092 C.3     1  UNL1        0.0229
     15 C          59.6173   85.9927    7.2992 C.3     1  UNL1        0.0190
     16 C          61.0799   85.6854    7.4264 C.3     1  UNL1        0.0710
     17 N          61.7163   84.6769    6.5164 N.3     1  UNL1       -0.3208
     18 C          61.9062   86.3865    8.4635 C.3     1  UNL1        0.1089
     19 H          61.0133   84.3026    5.8792 H       1  UNL1        0.1189
     20 H          62.1099   83.9178    7.0724 H       1  UNL1        0.1189
     21 C          61.9016   86.0242   11.9661 C.3     1  UNL1        0.1391
     22 C          63.2092   83.9974   12.9317 C.ar    1  UNL1        0.0663
     23 C          64.1103   82.8160   12.7267 C.ar    1  UNL1        0.0100
     24 C          64.6050   82.4798   11.3511 C.ar    1  UNL1        0.0007
     25 C          64.1986   83.3251   10.1805 C.ar    1  UNL1       -0.0002
     26 C          63.2974   84.5066   10.3855 C.ar    1  UNL1       -0.0017
     27 C          62.8027   84.8427   11.7611 C.ar    1  UNL1        0.0102
     28 N          62.2198   84.6698   15.6829 N.1     1  UNL1       -0.1908
     29 C          62.7145   84.3336   14.3072 C.1     1  UNL1        0.1002
@<TRIPOS>BOND
     1    28    29    3
     2    29    22    1
     3    22    23   ar
     4    23    24   ar
     5    24    25   ar
     6    25    26   ar
     7    26    27   ar
     8    27    21    1
     9    21     1    1
    10     1     2   ar
    11     2    12    1
    12    12    13    1
    13    13    14    1
    14    14    15    1
    15    15    16    1
    16    16    17    1
    17    16    18    1
    18     2     3   ar
    19     3     4   ar
    20     4     5   ar
    21     5     6   ar
    22     6     7   ar
    23     7     8   ar
    24     8     9   ar
    25     9    10   ar
    26    10    11    2
    27    27    22   ar
    28    10     1   ar
    29    18    12    1
    30     9     4   ar
    31    17    19    1
    32    17    20    1
@<TRIPOS>MOLECULE
*****
 29 32 0 0 0
SMALL
GASTEIGER

@<TRIPOS>ATOM
      1 N          63.7086   88.5245   13.0683 N.ar    1  UNL1       -0.2644
      2 C          63.7111   90.0052   12.8282 C.ar    1  UNL1        0.2037
      3 N          62.8563   90.5905   11.7435 N.ar    1  UNL1       -0.2148
      4 C          61.9989   89.6952   10.8988 C.ar    1  UNL1        0.0887
      5 C          61.1441   90.2805    9.8142 C.ar    1  UNL1        0.0193
      6 C          60.2868   89.3852    8.9695 C.ar    1  UNL1        0.0015
      7 C          60.2844   87.9046    9.2096 C.ar    1  UNL1        0.0003
      8 C          61.1392   87.3192   10.2943 C.ar    1  UNL1        0.0063
      9 C          61.9965   88.2145   11.1389 C.ar    1  UNL1        0.0739
     10 C          62.8514   87.6292   12.2237 C.ar    1  UNL1        0.2645
     11 O          62.8489   86.1485   12.4638 O.2     1  UNL1       -0.2668
     12 N          64.5685   90.9005   13.6729 N.pl3   1  UNL1       -0.2781
     13 C          65.8973   91.3695   13.1589 C.3     1  UNL1        0.0937
     14 C          66.7546   92.2647   14.0036 C.3     1  UNL1        0.0229
     15 C          66.2830   92.6910   15.3622 C.3     1  UNL1        0.0190
     16 C          64.9542   92.2221   15.8762 C.3     1  UNL1        0.0710
     17 N          64.4826   92.6484   17.2348 N.3     1  UNL1       -0.3208
     18 C          64.0969   91.3268   15.0315 C.3     1  UNL1        0.1089
     19 H          65.1850   93.2500   17.6652 H       1  UNL1        0.1189
     20 H          64.3371   91.8244   17.8183 H       1  UNL1        0.1189
     21 C          64.5635   87.9392   14.1531 C.3     1  UNL1        0.1391
     22 C          63.8936   85.9944   15.7402 C.ar    1  UNL1        0.0663
     23 C          63.2644   85.5161   17.0151 C.ar    1  UNL1        0.0100
     24 C          62.6759   86.5044   17.9778 C.ar    1  UNL1        0.0007
     25 C          62.7166   87.9711   17.6656 C.ar    1  UNL1       -0.0002
     26 C          63.3458   88.4493   16.3907 C.ar    1  UNL1       -0.0017
     27 C          63.9343   87.4609   15.4280 C.ar    1  UNL1        0.0102
     28 N          65.0706   84.0177   13.8147 N.1     1  UNL1       -0.1908
     29 C          64.4821   85.0061   14.7774 C.1     1  UNL1        0.1002
@<TRIPOS>BOND
     1    28    29    3
     2    29    22    1
     3    22    23   ar
     4    23    24   ar
     5    24    25   ar
     6    25    26   ar
     7    26    27   ar
     8    27    21    1
     9    21     1    1
    10     1     2   ar
    11     2    12    1
    12    12    13    1
    13    13    14    1
    14    14    15    1
    15    15    16    1
    16    16    17    1
    17    16    18    1
    18     2     3   ar
    19     3     4   ar
    20     4     5   ar
    21     5     6   ar
    22     6     7   ar
    23     7     8   ar
    24     8     9   ar
    25     9    10   ar
    26    10    11    2
    27    27    22   ar
    28    10     1   ar
    29    18    12    1
    30     9     4   ar
    31    17    19    1
    32    17    20    1
@<TRIPOS>MOLECULE
*****
 29 32 0 0 0
SMALL
GASTEIGER

@<TRIPOS>ATOM
      1 N          63.2119   89.9954   12.7394 N.ar    1  UNL1       -0.2644
      2 C          64.1615   89.8040   13.8847 C.ar    1  UNL1        0.2037
      3 N          65.3983   90.6471   13.9823 N.ar    1  UNL1       -0.2148
      4 C          65.6855   91.6815   12.9347 C.ar    1  UNL1        0.0887
      5 C          66.9223   92.5246   13.0323 C.ar    1  UNL1        0.0193
      6 C          67.2095   93.5590   11.9847 C.ar    1  UNL1        0.0015
      7 C          66.2598   93.7503   10.8395 C.ar    1  UNL1        0.0003
      8 C          65.0231   92.9073   10.7418 C.ar    1  UNL1        0.0063
      9 C          64.7359   91.8729   11.7894 C.ar    1  UNL1        0.0739
     10 C          63.4991   91.0298   11.6918 C.ar    1  UNL1        0.2645
     11 O          62.5494   91.2211   10.5465 O.2     1  UNL1       -0.2668
     12 N          63.8743   88.7696   14.9323 N.pl3   1  UNL1       -0.2781
     13 C          63.1857   89.1627   16.2056 C.3     1  UNL1        0.0937
     14 C          62.8985   88.1283   17.2531 C.3     1  UNL1        0.0229
     15 C          63.2999   86.7007   17.0274 C.3     1  UNL1        0.0190
     16 C          63.9885   86.3076   15.7542 C.3     1  UNL1        0.0710
     17 N          64.3899   84.8800   15.5285 N.3     1  UNL1       -0.3208
     18 C          64.2757   87.3420   14.7066 C.3     1  UNL1        0.1089
     19 H          64.1197   84.3191   16.3364 H       1  UNL1        0.1189
     20 H          65.4005   84.8272   15.4005 H       1  UNL1        0.1189
     21 C          61.9751   89.1522   12.6418 C.3     1  UNL1        0.1391
     22 C          60.4681   88.9208   10.5381 C.ar    1  UNL1        0.0663
     23 C          60.1322   88.2284    9.2506 C.ar    1  UNL1        0.0100
     24 C          60.9672   87.0750    8.7793 C.ar    1  UNL1        0.0007
     25 C          62.1383   86.6139    9.5954 C.ar    1  UNL1       -0.0002
     26 C          62.4742   87.3063   10.8829 C.ar    1  UNL1       -0.0017
     27 C          61.6391   88.4598   11.3543 C.ar    1  UNL1        0.0102
     28 N          58.7980   91.2278   11.4809 N.1     1  UNL1       -0.1908
     29 C          59.6330   90.0742   11.0095 C.1     1  UNL1        0.1002
@<TRIPOS>BOND
     1    28    29    3
     2    29    22    1
     3    22    23   ar
     4    23    24   ar
     5    24    25   ar
     6    25    26   ar
     7    26    27   ar
     8    27    21    1
     9    21     1    1
    10     1     2   ar
    11     2    12    1
    12    12    13    1
    13    13    14    1
    14    14    15    1
    15    15    16    1
    16    16    17    1
    17    16    18    1
    18     2     3   ar
    19     3     4   ar
    20     4     5   ar
    21     5     6   ar
    22     6     7   ar
    23     7     8   ar
    24     8     9   ar
    25     9    10   ar
    26    10    11    2
    27    27    22   ar
    28    10     1   ar
    29    18    12    1
    30     9     4   ar
    31    17    19    1
    32    17    20    1
@<TRIPOS>MOLECULE
*****
 29 32 0 0 0
SMALL
GASTEIGER

@<TRIPOS>ATOM
      1 N          63.8687   89.6039   12.9399 N.ar    1  UNL1       -0.2644
      2 C          64.3188   89.5692   14.3704 C.ar    1  UNL1        0.2037
      3 N          65.1382   90.6959   14.9264 N.ar    1  UNL1       -0.2148
      4 C          65.5075   91.8574   14.0519 C.ar    1  UNL1        0.0887
      5 C          66.3269   92.9841   14.6079 C.ar    1  UNL1        0.0193
      6 C          66.6961   94.1455   13.7334 C.ar    1  UNL1        0.0015
      7 C          66.2460   94.1802   12.3030 C.ar    1  UNL1        0.0003
      8 C          65.4266   93.0535   11.7470 C.ar    1  UNL1        0.0063
      9 C          65.0574   91.8921   12.6214 C.ar    1  UNL1        0.0739
     10 C          64.2380   90.7654   12.0655 C.ar    1  UNL1        0.2645
     11 O          63.7879   90.8001   10.6350 O.2     1  UNL1       -0.2668
     12 N          63.9495   88.4077   15.2448 N.pl3   1  UNL1       -0.2781
     13 C          63.1476   88.6332   16.4922 C.3     1  UNL1        0.0937
     14 C          62.7783   87.4718   17.3666 C.3     1  UNL1        0.0229
     15 C          63.2110   86.0848   16.9936 C.3     1  UNL1        0.0190
     16 C          64.0130   85.8593   15.7463 C.3     1  UNL1        0.0710
     17 N          64.4456   84.4723   15.3733 N.3     1  UNL1       -0.3208
     18 C          64.3822   87.0208   14.8719 C.3     1  UNL1        0.1089
     19 H          64.1102   83.8115   16.0741 H       1  UNL1        0.1189
     20 H          65.4640   84.4340   15.3297 H       1  UNL1        0.1189
     21 C          63.0493   88.4772   12.3839 C.3     1  UNL1        0.1391
     22 C          61.5169   87.7344   10.4218 C.ar    1  UNL1        0.0663
     23 C          60.3943   88.0222    9.4695 C.ar    1  UNL1        0.0100
     24 C          59.6815   89.3407    9.5270 C.ar    1  UNL1        0.0007
     25 C          60.0913   90.3715   10.5369 C.ar    1  UNL1       -0.0002
     26 C          61.2139   90.0836   11.4892 C.ar    1  UNL1       -0.0017
     27 C          61.9267   88.7650   11.4316 C.ar    1  UNL1        0.0102
     28 N          62.9426   85.0973   10.3069 N.1     1  UNL1       -0.1908
     29 C          62.2297   86.4158   10.3643 C.1     1  UNL1        0.1002
@<TRIPOS>BOND
     1    28    29    3
     2    29    22    1
     3    22    23   ar
     4    23    24   ar
     5    24    25   ar
     6    25    26   ar
     7    26    27   ar
     8    27    21    1
     9    21     1    1
    10     1     2   ar
    11     2    12    1
    12    12    13    1
    13    13    14    1
    14    14    15    1
    15    15    16    1
    16    16    17    1
    17    16    18    1
    18     2     3   ar
    19     3     4   ar
    20     4     5   ar
    21     5     6   ar
    22     6     7   ar
    23     7     8   ar
    24     8     9   ar
    25     9    10   ar
    26    10    11    2
    27    27    22   ar
    28    10     1   ar
    29    18    12    1
    30     9     4   ar
    31    17    19    1
    32    17    20    1
@<TRIPOS>MOLECULE
*****
 29 32 0 0 0
SMALL
GASTEIGER

@<TRIPOS>ATOM
      1 N          62.1303   86.8922   11.5644 N.ar    1  UNL1       -0.2644
      2 C          62.8550   86.2683   12.7201 C.ar    1  UNL1        0.2037
      3 N          63.7224   87.1130   13.6056 N.ar    1  UNL1       -0.2148
      4 C          63.8652   88.5816   13.3354 C.ar    1  UNL1        0.0887
      5 C          64.7326   89.4262   14.2209 C.ar    1  UNL1        0.0193
      6 C          64.8753   90.8947   13.9507 C.ar    1  UNL1        0.0015
      7 C          64.1505   91.5186   12.7951 C.ar    1  UNL1        0.0003
      8 C          63.2831   90.6740   11.9096 C.ar    1  UNL1        0.0063
      9 C          63.1404   89.2055   12.1798 C.ar    1  UNL1        0.0739
     10 C          62.2730   88.3607   11.2943 C.ar    1  UNL1        0.2645
     11 O          61.5483   88.9846   10.1386 O.2     1  UNL1       -0.2668
     12 N          62.7123   84.7997   12.9903 N.pl3   1  UNL1       -0.2781
     13 C          62.2865   84.3248   14.3478 C.3     1  UNL1        0.0937
     14 C          62.1438   82.8563   14.6179 C.3     1  UNL1        0.0229
     15 C          62.4269   81.8627   13.5305 C.3     1  UNL1        0.0190
     16 C          62.8527   82.3376   12.1729 C.3     1  UNL1        0.0710
     17 N          63.1358   81.3440   11.0854 N.3     1  UNL1       -0.3208
     18 C          62.9954   83.8061   11.9028 C.3     1  UNL1        0.1089
     19 H          62.9895   80.3994   11.4414 H       1  UNL1        0.1189
     20 H          64.1024   81.4448   10.7759 H       1  UNL1        0.1189
     21 C          61.2629   86.0475   10.6789 C.3     1  UNL1        0.1391
     22 C          60.9513   85.8456    8.1075 C.ar    1  UNL1        0.0663
     23 C          61.4579   85.3970    6.7688 C.ar    1  UNL1        0.0100
     24 C          62.7826   84.7014    6.6629 C.ar    1  UNL1        0.0007
     25 C          63.6009   84.4545    7.8957 C.ar    1  UNL1       -0.0002
     26 C          63.0943   84.9032    9.2343 C.ar    1  UNL1       -0.0017
     27 C          61.7695   85.5988    9.3402 C.ar    1  UNL1        0.0102
     28 N          58.3018   87.2368    8.3195 N.1     1  UNL1       -0.1908
     29 C          59.6266   86.5412    8.2135 C.1     1  UNL1        0.1002
@<TRIPOS>BOND
     1    28    29    3
     2    29    22    1
     3    22    23   ar
     4    23    24   ar
     5    24    25   ar
     6    25    26   ar
     7    26    27   ar
     8    27    21    1
     9    21     1    1
    10     1     2   ar
    11     2    12    1
    12    12    13    1
    13    13    14    1
    14    14    15    1
    15    15    16    1
    16    16    17    1
    17    16    18    1
    18     2     3   ar
    19     3     4   ar
    20     4     5   ar
    21     5     6   ar
    22     6     7   ar
    23     7     8   ar
    24     8     9   ar
    25     9    10   ar
    26    10    11    2
    27    27    22   ar
    28    10     1   ar
    29    18    12    1
    30     9     4   ar
    31    17    19    1
    32    17    20    1
@<TRIPOS>MOLECULE
*****
 29 32 0 0 0
SMALL
GASTEIGER

@<TRIPOS>ATOM
      1 N          63.1190   86.5719   12.3021 N.ar    1  UNL1       -0.2644
      2 C          62.5882   85.2959   11.7190 C.ar    1  UNL1        0.2037
      3 N          61.6196   85.3403   10.5745 N.ar    1  UNL1       -0.2148
      4 C          61.1818   86.6606   10.0131 C.ar    1  UNL1        0.0887
      5 C          60.2132   86.7050    8.8687 C.ar    1  UNL1        0.0193
      6 C          59.7755   88.0253    8.3074 C.ar    1  UNL1        0.0015
      7 C          60.3064   89.3013    8.8905 C.ar    1  UNL1        0.0003
      8 C          61.2750   89.2569   10.0350 C.ar    1  UNL1        0.0063
      9 C          61.7127   87.9366   10.5963 C.ar    1  UNL1        0.0739
     10 C          62.6814   87.8922   11.7408 C.ar    1  UNL1        0.2645
     11 O          63.2122   89.1682   12.3239 O.2     1  UNL1       -0.2668
     12 N          63.0259   83.9755   12.2803 N.pl3   1  UNL1       -0.2781
     13 C          64.3086   83.3515   11.8165 C.3     1  UNL1        0.0937
     14 C          64.7463   82.0312   12.3778 C.3     1  UNL1        0.0229
     15 C          63.9013   81.3349   13.4031 C.3     1  UNL1        0.0190
     16 C          62.6186   81.9590   13.8670 C.3     1  UNL1        0.0710
     17 N          61.7736   81.2627   14.8922 N.3     1  UNL1       -0.3208
     18 C          62.1809   83.2793   13.3056 C.3     1  UNL1        0.1089
     19 H          62.2188   80.3852   15.1607 H       1  UNL1        0.1189
     20 H          60.8521   81.0702   14.4995 H       1  UNL1        0.1189
     21 C          64.0877   86.5275   13.4466 C.3     1  UNL1        0.1391
     22 C          63.7142   87.8740   15.6369 C.ar    1  UNL1        0.0663
     23 C          63.2112   87.9451   17.0483 C.ar    1  UNL1        0.0100
     24 C          62.5788   86.7410   17.6807 C.ar    1  UNL1        0.0007
     25 C          62.4493   85.4656   16.9018 C.ar    1  UNL1       -0.0002
     26 C          62.9523   85.3944   15.4904 C.ar    1  UNL1       -0.0017
     27 C          63.5847   86.5987   14.8580 C.ar    1  UNL1        0.0102
     28 N          64.9790   90.2823   14.3720 N.1     1  UNL1       -0.1908
     29 C          64.3466   89.0781   15.0045 C.1     1  UNL1        0.1002
@<TRIPOS>BOND
     1    28    29    3
     2    29    22    1
     3    22    23   ar
     4    23    24   ar
     5    24    25   ar
     6    25    26   ar
     7    26    27   ar
     8    27    21    1
     9    21     1    1
    10     1     2   ar
    11     2    12    1
    12    12    13    1
    13    13    14    1
    14    14    15    1
    15    15    16    1
    16    16    17    1
    17    16    18    1
    18     2     3   ar
    19     3     4   ar
    20     4     5   ar
    21     5     6   ar
    22     6     7   ar
    23     7     8   ar
    24     8     9   ar
    25     9    10   ar
    26    10    11    2
    27    27    22   ar
    28    10     1   ar
    29    18    12    1
    30     9     4   ar
    31    17    19    1
    32    17    20    1
@<TRIPOS>MOLECULE
*****
 29 32 0 0 0
SMALL
GASTEIGER

@<TRIPOS>ATOM
      1 N          62.4695   87.0172   11.5778 N.ar    1  UNL1       -0.2644
      2 C          62.5524   88.5128   11.5000 C.ar    1  UNL1        0.2037
      3 N          61.7787   89.2533   10.4498 N.ar    1  UNL1       -0.2148
      4 C          60.9220   88.4981    9.4772 C.ar    1  UNL1        0.0887
      5 C          60.1483   89.2385    8.4270 C.ar    1  UNL1        0.0193
      6 C          59.2916   88.4833    7.4545 C.ar    1  UNL1        0.0015
      7 C          59.2087   86.9876    7.5323 C.ar    1  UNL1        0.0003
      8 C          59.9824   86.2472    8.5825 C.ar    1  UNL1        0.0063
      9 C          60.8391   87.0024    9.5550 C.ar    1  UNL1        0.0739
     10 C          61.6129   86.2619   10.6053 C.ar    1  UNL1        0.2645
     11 O          61.5299   84.7662   10.6831 O.2     1  UNL1       -0.2668
     12 N          63.4091   89.2681   12.4725 N.pl3   1  UNL1       -0.2781
     13 C          63.8266   88.6244   13.7614 C.3     1  UNL1        0.0937
     14 C          64.6833   89.3796   14.7339 C.3     1  UNL1        0.0229
     15 C          65.1225   90.7785   14.4174 C.3     1  UNL1        0.0190
     16 C          64.7049   91.4222   13.1286 C.3     1  UNL1        0.0710
     17 N          65.1441   92.8212   12.8121 N.3     1  UNL1       -0.3208
     18 C          63.8483   90.6670   12.1561 C.3     1  UNL1        0.1089
     19 H          65.7153   93.1795   13.5775 H       1  UNL1        0.1189
     20 H          64.3242   93.4160   12.6923 H       1  UNL1        0.1189
     21 C          63.2433   86.2767   12.6281 C.3     1  UNL1        0.1391
     22 C          62.9816   83.9061   13.6585 C.ar    1  UNL1        0.0663
     23 C          63.1513   82.4193   13.5564 C.ar    1  UNL1        0.0100
     24 C          63.7525   81.8161   12.3216 C.ar    1  UNL1        0.0007
     25 C          64.1840   82.6998   11.1889 C.ar    1  UNL1       -0.0002
     26 C          64.0142   84.1867   11.2910 C.ar    1  UNL1       -0.0017
     27 C          63.4130   84.7898   12.5259 C.ar    1  UNL1        0.0102
     28 N          61.7792   85.1125   16.1282 N.1     1  UNL1       -0.1908
     29 C          62.3804   84.5093   14.8933 C.1     1  UNL1        0.1002
@<TRIPOS>BOND
     1    28    29    3
     2    29    22    1
     3    22    23   ar
     4    23    24   ar
     5    24    25   ar
     6    25    26   ar
     7    26    27   ar
     8    27    21    1
     9    21     1    1
    10     1     2   ar
    11     2    12    1
    12    12    13    1
    13    13    14    1
    14    14    15    1
    15    15    16    1
    16    16    17    1
    17    16    18    1
    18     2     3   ar
    19     3     4   ar
    20     4     5   ar
    21     5     6   ar
    22     6     7   ar
    23     7     8   ar
    24     8     9   ar
    25     9    10   ar
    26    10    11    2
    27    27    22   ar
    28    10     1   ar
    29    18    12    1
    30     9     4   ar
    31    17    19    1
    32    17    20    1
@<TRIPOS>MOLECULE
*****
 29 32 0 0 0
SMALL
GASTEIGER

@<TRIPOS>ATOM
      1 N          62.7937   86.8146   11.4435 N.ar    1  UNL1       -0.2644
      2 C          62.5191   85.5026   10.7703 C.ar    1  UNL1        0.2037
      3 N          62.7862   84.2171   11.4956 N.ar    1  UNL1       -0.2148
      4 C          63.3279   84.2436   12.8942 C.ar    1  UNL1        0.0887
      5 C          63.5950   82.9581   13.6195 C.ar    1  UNL1        0.0193
      6 C          64.1366   82.9847   15.0181 C.ar    1  UNL1        0.0015
      7 C          64.4112   84.2967   15.6912 C.ar    1  UNL1        0.0003
      8 C          64.1441   85.5822   14.9659 C.ar    1  UNL1        0.0063
      9 C          63.6025   85.5556   13.5674 C.ar    1  UNL1        0.0739
     10 C          63.3354   86.8412   12.8420 C.ar    1  UNL1        0.2645
     11 O          63.6099   88.1532   13.5152 O.2     1  UNL1       -0.2668
     12 N          61.9775   85.4761    9.3717 N.pl3   1  UNL1       -0.2781
     13 C          62.8104   84.9196    8.2553 C.3     1  UNL1        0.0937
     14 C          62.2687   84.8931    6.8568 C.3     1  UNL1        0.0229
     15 C          60.8941   85.4232    6.5748 C.3     1  UNL1        0.0190
     16 C          60.0612   85.9797    7.6912 C.3     1  UNL1        0.0710
     17 N          58.6866   86.5098    7.4092 N.3     1  UNL1       -0.3208
     18 C          60.6029   86.0062    9.0897 C.3     1  UNL1        0.1089
     19 H          58.4828   86.4141    6.4143 H       1  UNL1        0.1189
     20 H          58.6412   87.4941    7.6724 H       1  UNL1        0.1189
     21 C          62.5266   88.1002   10.7181 C.3     1  UNL1        0.1391
     22 C          61.4001   90.4236   11.0054 C.ar    1  UNL1        0.0663
     23 C          60.2003   91.2504   11.3616 C.ar    1  UNL1        0.0100
     24 C          58.9273   90.5807   11.7868 C.ar    1  UNL1        0.0007
     25 C          58.8540   89.0840   11.8558 C.ar    1  UNL1       -0.0002
     26 C          60.0538   88.2572   11.4995 C.ar    1  UNL1       -0.0017
     27 C          61.3268   88.9270   11.0743 C.ar    1  UNL1        0.0102
     28 N          63.9461   91.7632   10.1550 N.1     1  UNL1       -0.1908
     29 C          62.6731   91.0934   10.5802 C.1     1  UNL1        0.1002
@<TRIPOS>BOND
     1    28    29    3
     2    29    22    1
     3    22    23   ar
     4    23    24   ar
     5    24    25   ar
     6    25    26   ar
     7    26    27   ar
     8    27    21    1
     9    21     1    1
    10     1     2   ar
    11     2    12    1
    12    12    13    1
    13    13    14    1
    14    14    15    1
    15    15    16    1
    16    16    17    1
    17    16    18    1
    18     2     3   ar
    19     3     4   ar
    20     4     5   ar
    21     5     6   ar
    22     6     7   ar
    23     7     8   ar
    24     8     9   ar
    25     9    10   ar
    26    10    11    2
    27    27    22   ar
    28    10     1   ar
    29    18    12    1
    30     9     4   ar
    31    17    19    1
    32    17    20    1
@<TRIPOS>MOLECULE
*****
 29 32 0 0 0
SMALL
GASTEIGER

@<TRIPOS>ATOM
      1 N          63.2162   86.5778   12.4494 N.ar    1  UNL1       -0.2644
      2 C          62.6217   85.3967   11.7413 C.ar    1  UNL1        0.2037
      3 N          61.6910   85.6066   10.5839 N.ar    1  UNL1       -0.2148
      4 C          61.3548   86.9977   10.1345 C.ar    1  UNL1        0.0887
      5 C          60.4241   87.2076    8.9771 C.ar    1  UNL1        0.0193
      6 C          60.0879   88.5987    8.5278 C.ar    1  UNL1        0.0015
      7 C          60.6825   89.7798    9.2359 C.ar    1  UNL1        0.0003
      8 C          61.6132   89.5699   10.3933 C.ar    1  UNL1        0.0063
      9 C          61.9493   88.1788   10.8426 C.ar    1  UNL1        0.0739
     10 C          62.8801   87.9688   12.0001 C.ar    1  UNL1        0.2645
     11 O          63.4746   89.1500   12.7082 O.2     1  UNL1       -0.2668
     12 N          62.9579   84.0055   12.1906 N.pl3   1  UNL1       -0.2781
     13 C          64.2439   83.3673   11.7563 C.3     1  UNL1        0.0937
     14 C          64.5801   81.9763   12.2057 C.3     1  UNL1        0.0229
     15 C          63.6302   81.2235   13.0894 C.3     1  UNL1        0.0190
     16 C          62.3441   81.8617   13.5237 C.3     1  UNL1        0.0710
     17 N          61.3942   81.1089   14.4074 N.3     1  UNL1       -0.3208
     18 C          62.0080   83.2527   13.0743 C.3     1  UNL1        0.1089
     19 H          61.7793   80.1871   14.6133 H       1  UNL1        0.1189
     20 H          60.4978   81.0044   13.9320 H       1  UNL1        0.1189
     21 C          64.1470   86.3678   13.6069 C.3     1  UNL1        0.1391
     22 C          63.5998   85.8740   16.0982 C.ar    1  UNL1        0.0663
     23 C          63.2180   86.3593   17.4652 C.ar    1  UNL1        0.0100
     24 C          63.0015   87.8236   17.7079 C.ar    1  UNL1        0.0007
     25 C          63.1668   88.8027   16.5836 C.ar    1  UNL1       -0.0002
     26 C          63.5486   88.3174   15.2166 C.ar    1  UNL1       -0.0017
     27 C          63.7651   86.8531   14.9739 C.ar    1  UNL1        0.0102
     28 N          64.0330   82.9454   15.6128 N.1     1  UNL1       -0.1908
     29 C          63.8164   84.4098   15.8555 C.1     1  UNL1        0.1002
@<TRIPOS>BOND
     1    28    29    3
     2    29    22    1
     3    22    23   ar
     4    23    24   ar
     5    24    25   ar
     6    25    26   ar
     7    26    27   ar
     8    27    21    1
     9    21     1    1
    10     1     2   ar
    11     2    12    1
    12    12    13    1
    13    13    14    1
    14    14    15    1
    15    15    16    1
    16    16    17    1
    17    16    18    1
    18     2     3   ar
    19     3     4   ar
    20     4     5   ar
    21     5     6   ar
    22     6     7   ar
    23     7     8   ar
    24     8     9   ar
    25     9    10   ar
    26    10    11    2
    27    27    22   ar
    28    10     1   ar
    29    18    12    1
    30     9     4   ar
    31    17    19    1
    32    17    20    1
