@<TRIPOS>MOLECULE
*****
 30 32 0 0 0
SMALL
GASTEIGER

@<TRIPOS>ATOM
      1 C          63.4750   86.9739   13.0845 C.2     1  UNL1        0.4125
      2 O          64.2671   86.6570   14.3182 O.2     1  UNL1       -0.2255
      3 N          62.8661   85.8648   12.2786 N.am    1  UNL1       -0.2037
      4 C          62.0739   86.1817   11.0450 C.ar    1  UNL1        0.0613
      5 C          60.8615   87.0601   11.1372 C.ar    1  UNL1        0.0162
      6 C          60.0693   87.3770    9.9035 C.ar    1  UNL1        0.0127
      7 C          60.4896   86.8155    8.5776 C.ar    1  UNL1        0.0578
      8 CL         59.6974   87.1324    7.3439 Cl      1  UNL1       -0.0822
      9 C          61.7020   85.9372    8.4853 C.ar    1  UNL1        0.0127
     10 C          62.4942   85.6203    9.7190 C.ar    1  UNL1        0.0162
     11 C          63.0495   84.4389   12.7065 C.ar    1  UNL1        0.0613
     12 C          62.3136   83.9145   13.9037 C.ar    1  UNL1        0.0153
     13 C          62.4970   82.4886   14.3315 C.ar    1  UNL1        0.0013
     14 C          63.4164   81.5870   13.5622 C.ar    1  UNL1        0.0001
     15 C          64.1524   82.1114   12.3650 C.ar    1  UNL1        0.0013
     16 C          63.9690   83.5374   11.9371 C.ar    1  UNL1        0.0153
     17 O          63.2915   88.3999   12.6567 O.3     1  UNL1       -0.4341
     18 C          63.8505   89.5119   13.4938 C.3     1  UNL1        0.2100
     19 C          65.3890   93.2549   11.5260 C.3     1  UNL1        0.0297
     20 C          64.4270   92.3651   10.7962 C.3     1  UNL1        0.0026
     21 C          63.9142   91.1174   11.4522 C.3     1  UNL1        0.0038
     22 C          64.3633   90.7596   12.8379 C.3     1  UNL1        0.0439
     23 C          65.3254   91.6495   13.5676 C.3     1  UNL1        0.0038
     24 C          65.8382   92.8972   12.9117 C.3     1  UNL1        0.0026
     25 C          65.9019   94.5026   10.8700 C.3     1  UNL1        0.1426
     26 O          67.3467   94.6057   10.4805 O.3     1  UNL1       -0.3478
     27 C          67.8397   93.9219    9.2398 C.3     1  UNL1        0.1835
     28 O          68.6149   91.8928   10.6652 O.co2   1  UNL1       -0.5466
     29 C          68.4924   92.5747    9.3348 C.2     1  UNL1        0.0801
     30 O          69.0226   91.9093    8.0994 O.co2   1  UNL1       -0.5466
@<TRIPOS>UNITY_ATOM_ATTR
28 1
charge -1
@<TRIPOS>BOND
     1    28    29   ar
     2    29    30   ar
     3    29    27    1
     4    27    26    1
     5    26    25    1
     6    19    25    1
     7    19    20    1
     8    20    21    1
     9    21    22    1
    10    22    18    1
    11    18    17    1
    12    17     1    1
    13     1     2    2
    14     1     3   am
    15     3    11    1
    16    11    12   ar
    17    12    13   ar
    18    13    14   ar
    19    14    15   ar
    20    15    16   ar
    21     3     4    1
    22     4     5   ar
    23     5     6   ar
    24     6     7   ar
    25     7     8    1
    26     7     9   ar
    27     9    10   ar
    28    22    23    1
    29    23    24    1
    30    24    19    1
    31    16    11   ar
    32    10     4   ar
@<TRIPOS>MOLECULE
*****
 30 32 0 0 0
SMALL
GASTEIGER

@<TRIPOS>ATOM
      1 C          63.5052   86.9835   13.0809 C.2     1  UNL1        0.4125
      2 O          64.3159   86.6615   14.3010 O.2     1  UNL1       -0.2255
      3 N          62.8999   85.8769   12.2689 N.am    1  UNL1       -0.2037
      4 C          62.0892   86.1990   11.0487 C.ar    1  UNL1        0.0613
      5 C          60.8820   87.0821   11.1619 C.ar    1  UNL1        0.0162
      6 C          60.0713   87.4042    9.9416 C.ar    1  UNL1        0.0127
      7 C          60.4676   86.8430    8.6082 C.ar    1  UNL1        0.0578
      8 CL         59.6569   87.1651    7.3881 Cl      1  UNL1       -0.0822
      9 C          61.6748   85.9598    8.4951 C.ar    1  UNL1        0.0127
     10 C          62.4855   85.6378    9.7152 C.ar    1  UNL1        0.0162
     11 C          63.1055   84.4483   12.6772 C.ar    1  UNL1        0.0613
     12 C          64.0771   83.5862   11.9271 C.ar    1  UNL1        0.0153
     13 C          64.2827   82.1576   12.3354 C.ar    1  UNL1        0.0013
     14 C          63.5167   81.5910   13.4939 C.ar    1  UNL1        0.0001
     15 C          62.5450   82.4531   14.2441 C.ar    1  UNL1        0.0013
     16 C          62.3394   83.8817   13.8358 C.ar    1  UNL1        0.0153
     17 O          63.2996   88.4122   12.6725 O.3     1  UNL1       -0.4341
     18 C          63.8698   89.5203   13.5073 C.3     1  UNL1        0.2100
     19 C          65.4118   93.2590   11.5339 C.3     1  UNL1        0.0297
     20 C          65.8595   92.9036   12.9207 C.3     1  UNL1        0.0026
     21 C          65.3455   91.6574   13.5785 C.3     1  UNL1        0.0038
     22 C          64.3838   90.7665   12.8495 C.3     1  UNL1        0.0439
     23 C          63.9361   91.1219   11.4627 C.3     1  UNL1        0.0038
     24 C          64.4501   92.3681   10.8049 C.3     1  UNL1        0.0026
     25 C          65.9258   94.5052   10.8761 C.3     1  UNL1        0.1426
     26 O          67.3646   94.5960   10.4621 O.3     1  UNL1       -0.3478
     27 C          67.8322   93.9015    9.2175 C.3     1  UNL1        0.1835
     28 O          68.6202   91.8765   10.6418 O.co2   1  UNL1       -0.5466
     29 C          68.4891   92.5561    9.3111 C.2     1  UNL1        0.0801
     30 O          69.0147   91.8905    8.0739 O.co2   1  UNL1       -0.5466
@<TRIPOS>UNITY_ATOM_ATTR
28 1
charge -1
@<TRIPOS>BOND
     1    28    29   ar
     2    29    30   ar
     3    29    27    1
     4    27    26    1
     5    26    25    1
     6    19    25    1
     7    19    20    1
     8    20    21    1
     9    21    22    1
    10    22    18    1
    11    18    17    1
    12    17     1    1
    13     1     2    2
    14     1     3   am
    15     3    11    1
    16    11    12   ar
    17    12    13   ar
    18    13    14   ar
    19    14    15   ar
    20    15    16   ar
    21     3     4    1
    22     4     5   ar
    23     5     6   ar
    24     6     7   ar
    25     7     8    1
    26     7     9   ar
    27     9    10   ar
    28    22    23    1
    29    23    24    1
    30    24    19    1
    31    16    11   ar
    32    10     4   ar
@<TRIPOS>MOLECULE
*****
 30 32 0 0 0
SMALL
GASTEIGER

@<TRIPOS>ATOM
      1 C          63.1937   89.9979   12.1556 C.2     1  UNL1        0.4125
      2 O          63.4454   90.9209   11.0003 O.2     1  UNL1       -0.2255
      3 N          64.0206   90.1132   13.4018 N.am    1  UNL1       -0.2037
      4 C          63.7688   89.1902   14.5570 C.ar    1  UNL1        0.0613
      5 C          64.1826   87.7510   14.4712 C.ar    1  UNL1        0.0162
      6 C          63.9308   86.8280   15.6265 C.ar    1  UNL1        0.0127
      7 C          63.2652   87.3443   16.8677 C.ar    1  UNL1        0.0578
      8 CL         63.0135   86.4213   18.0229 Cl      1  UNL1       -0.0822
      9 C          62.8515   88.7835   16.9535 C.ar    1  UNL1        0.0127
     10 C          63.1033   89.7065   15.7983 C.ar    1  UNL1        0.0162
     11 C          65.0993   91.1515   13.4926 C.ar    1  UNL1        0.0613
     12 C          66.1631   91.0378   14.5439 C.ar    1  UNL1        0.0153
     13 C          67.2419   92.0762   14.6348 C.ar    1  UNL1        0.0013
     14 C          67.2568   93.2282   13.6743 C.ar    1  UNL1        0.0001
     15 C          66.1929   93.3419   12.6229 C.ar    1  UNL1        0.0013
     16 C          65.1142   92.3036   12.5321 C.ar    1  UNL1        0.0153
     17 O          62.1149   88.9596   12.0647 O.3     1  UNL1       -0.4341
     18 C          61.9493   88.1581   10.8077 C.3     1  UNL1        0.2100
     19 C          63.2195   83.8423   10.7072 C.3     1  UNL1        0.0297
     20 C          62.9040   84.5009   12.0173 C.3     1  UNL1        0.0026
     21 C          62.4806   85.9395   12.0509 C.3     1  UNL1        0.0038
     22 C          62.3727   86.7195   10.7742 C.3     1  UNL1        0.0439
     23 C          62.6883   86.0609    9.4640 C.3     1  UNL1        0.0038
     24 C          63.1117   84.6223    9.4305 C.3     1  UNL1        0.0026
     25 C          63.6429   82.4037   10.6737 C.3     1  UNL1        0.1426
     26 O          63.9057   81.6691   11.9548 O.3     1  UNL1       -0.3478
     27 C          62.8290   80.8253   12.5700 C.3     1  UNL1        0.1835
     28 O          60.7332   80.8586   14.1052 O.co2   1  UNL1       -0.5466
     29 C          62.1455   81.2796   13.8256 C.2     1  UNL1        0.0801
     30 O          62.8743   82.1550   14.8016 O.co2   1  UNL1       -0.5466
@<TRIPOS>UNITY_ATOM_ATTR
28 1
charge -1
@<TRIPOS>BOND
     1    28    29   ar
     2    29    30   ar
     3    29    27    1
     4    27    26    1
     5    26    25    1
     6    19    25    1
     7    19    20    1
     8    20    21    1
     9    21    22    1
    10    22    18    1
    11    18    17    1
    12    17     1    1
    13     1     2    2
    14     1     3   am
    15     3    11    1
    16    11    12   ar
    17    12    13   ar
    18    13    14   ar
    19    14    15   ar
    20    15    16   ar
    21     3     4    1
    22     4     5   ar
    23     5     6   ar
    24     6     7   ar
    25     7     8    1
    26     7     9   ar
    27     9    10   ar
    28    22    23    1
    29    23    24    1
    30    24    19    1
    31    16    11   ar
    32    10     4   ar
@<TRIPOS>MOLECULE
*****
 30 32 0 0 0
SMALL
GASTEIGER

@<TRIPOS>ATOM
      1 C          63.5691   86.2222   13.2588 C.2     1  UNL1        0.4125
      2 O          64.2916   85.6454   14.4400 O.2     1  UNL1       -0.2255
      3 N          62.7734   85.3268   12.3558 N.am    1  UNL1       -0.2037
      4 C          62.0509   85.9037   11.1746 C.ar    1  UNL1        0.0613
      5 C          62.4471   85.5034    9.7843 C.ar    1  UNL1        0.0162
      6 C          61.7245   86.0802    8.6031 C.ar    1  UNL1        0.0127
      7 C          60.6059   87.0574    8.8122 C.ar    1  UNL1        0.0578
      8 CL         59.8833   87.6342    7.6310 Cl      1  UNL1       -0.0822
      9 C          60.2097   87.4577   10.2025 C.ar    1  UNL1        0.0127
     10 C          60.9322   86.8809   11.3836 C.ar    1  UNL1        0.0162
     11 C          62.7003   83.8547   12.6340 C.ar    1  UNL1        0.0613
     12 C          63.1126   82.8707   11.5796 C.ar    1  UNL1        0.0153
     13 C          63.0395   81.3986   11.8578 C.ar    1  UNL1        0.0013
     14 C          62.5541   80.9104   13.1905 C.ar    1  UNL1        0.0001
     15 C          62.1419   81.8943   14.2450 C.ar    1  UNL1        0.0013
     16 C          62.2150   83.3665   13.9668 C.ar    1  UNL1        0.0153
     17 O          63.6422   87.6944   12.9805 O.3     1  UNL1       -0.4341
     18 C          63.9464   88.6537   14.0928 C.3     1  UNL1        0.2100
     19 C          65.7391   92.6761   13.1676 C.3     1  UNL1        0.0297
     20 C          64.7136   92.0825   12.2478 C.3     1  UNL1        0.0026
     21 C          64.1160   90.7417   12.5562 C.3     1  UNL1        0.0038
     22 C          64.5439   89.9945   13.7844 C.3     1  UNL1        0.0439
     23 C          65.5694   90.5881   14.7042 C.3     1  UNL1        0.0038
     24 C          66.1669   91.9289   14.3958 C.3     1  UNL1        0.0026
     25 C          66.3366   94.0169   12.8592 C.3     1  UNL1        0.1426
     26 O          66.8582   94.3070   11.4831 O.3     1  UNL1       -0.3478
     27 C          66.4525   95.5669   10.7773 C.3     1  UNL1        0.1835
     28 O          66.0385   96.7321    8.4923 O.co2   1  UNL1       -0.5466
     29 C          66.8221   95.7726    9.3381 C.2     1  UNL1        0.0801
     30 O          67.9754   95.0189    8.7449 O.co2   1  UNL1       -0.5466
@<TRIPOS>UNITY_ATOM_ATTR
28 1
charge -1
@<TRIPOS>BOND
     1    28    29   ar
     2    29    30   ar
     3    29    27    1
     4    27    26    1
     5    26    25    1
     6    19    25    1
     7    19    20    1
     8    20    21    1
     9    21    22    1
    10    22    18    1
    11    18    17    1
    12    17     1    1
    13     1     2    2
    14     1     3   am
    15     3    11    1
    16    11    12   ar
    17    12    13   ar
    18    13    14   ar
    19    14    15   ar
    20    15    16   ar
    21     3     4    1
    22     4     5   ar
    23     5     6   ar
    24     6     7   ar
    25     7     8    1
    26     7     9   ar
    27     9    10   ar
    28    22    23    1
    29    23    24    1
    30    24    19    1
    31    16    11   ar
    32    10     4   ar
@<TRIPOS>MOLECULE
*****
 30 32 0 0 0
SMALL
GASTEIGER

@<TRIPOS>ATOM
      1 C          62.4705   87.9590   10.9692 C.2     1  UNL1        0.4125
      2 O          62.1186   88.9479    9.8977 O.2     1  UNL1       -0.2255
      3 N          62.4141   86.4881   10.6802 N.am    1  UNL1       -0.2037
      4 C          62.7660   85.4992   11.7517 C.ar    1  UNL1        0.0613
      5 C          62.4668   84.0425   11.5554 C.ar    1  UNL1        0.0162
      6 C          62.8187   83.0536   12.6270 C.ar    1  UNL1        0.0127
      7 C          63.4698   83.5213   13.8948 C.ar    1  UNL1        0.0578
      8 CL         63.8216   82.5324   14.9663 Cl      1  UNL1       -0.0822
      9 C          63.7690   84.9780   14.0910 C.ar    1  UNL1        0.0127
     10 C          63.4171   85.9669   13.0195 C.ar    1  UNL1        0.0162
     11 C          62.0059   86.0063    9.3196 C.ar    1  UNL1        0.0613
     12 C          60.5960   86.2017    8.8465 C.ar    1  UNL1        0.0153
     13 C          60.1878   85.7198    7.4860 C.ar    1  UNL1        0.0013
     14 C          61.1895   85.0426    6.5984 C.ar    1  UNL1        0.0001
     15 C          62.5996   84.8472    7.0714 C.ar    1  UNL1        0.0013
     16 C          63.0078   85.3290    8.4320 C.ar    1  UNL1        0.0153
     17 O          62.8787   88.4408   12.3298 O.3     1  UNL1       -0.4341
     18 C          62.6200   89.8629   12.7307 C.3     1  UNL1        0.2100
     19 C          65.5997   93.0711   11.6918 C.3     1  UNL1        0.0297
     20 C          65.5406   92.5260   13.0880 C.3     1  UNL1        0.0026
     21 C          64.5474   91.4566   13.4343 C.3     1  UNL1        0.0038
     22 C          63.6132   90.9323   12.3844 C.3     1  UNL1        0.0439
     23 C          63.6723   91.4773   10.9882 C.3     1  UNL1        0.0038
     24 C          64.6655   92.5467   10.6419 C.3     1  UNL1        0.0026
     25 C          66.5929   94.1404   11.3455 C.3     1  UNL1        0.1426
     26 O          66.8149   94.5221    9.9120 O.3     1  UNL1       -0.3478
     27 C          68.0967   94.1512    9.2270 C.3     1  UNL1        0.1835
     28 O          68.7867   92.0564   10.6003 O.co2   1  UNL1       -0.5466
     29 C          68.5918   92.7361    9.2774 C.2     1  UNL1        0.0801
     30 O          68.8920   92.0008    8.0049 O.co2   1  UNL1       -0.5466
@<TRIPOS>UNITY_ATOM_ATTR
28 1
charge -1
@<TRIPOS>BOND
     1    28    29   ar
     2    29    30   ar
     3    29    27    1
     4    27    26    1
     5    26    25    1
     6    19    25    1
     7    19    20    1
     8    20    21    1
     9    21    22    1
    10    22    18    1
    11    18    17    1
    12    17     1    1
    13     1     2    2
    14     1     3   am
    15     3    11    1
    16    11    12   ar
    17    12    13   ar
    18    13    14   ar
    19    14    15   ar
    20    15    16   ar
    21     3     4    1
    22     4     5   ar
    23     5     6   ar
    24     6     7   ar
    25     7     8    1
    26     7     9   ar
    27     9    10   ar
    28    22    23    1
    29    23    24    1
    30    24    19    1
    31    16    11   ar
    32    10     4   ar
@<TRIPOS>MOLECULE
*****
 30 32 0 0 0
SMALL
GASTEIGER

@<TRIPOS>ATOM
      1 C          61.3176   87.9303   10.5381 C.2     1  UNL1        0.4125
      2 O          60.7127   88.6810    9.3890 O.2     1  UNL1       -0.2255
      3 N          61.8579   86.5466   10.3288 N.am    1  UNL1       -0.2037
      4 C          62.4628   85.7959   11.4779 C.ar    1  UNL1        0.0613
      5 C          63.1994   86.5376   12.5537 C.ar    1  UNL1        0.0162
      6 C          63.8043   85.7868   13.7028 C.ar    1  UNL1        0.0127
      7 C          63.6725   84.2944   13.7762 C.ar    1  UNL1        0.0578
      8 CL         64.2774   83.5437   14.9253 Cl      1  UNL1       -0.0822
      9 C          62.9359   83.5528   12.7004 C.ar    1  UNL1        0.0127
     10 C          62.3310   84.3035   11.5513 C.ar    1  UNL1        0.0162
     11 C          61.7933   85.9138    8.9704 C.ar    1  UNL1        0.0613
     12 C          63.0356   85.3521    8.3448 C.ar    1  UNL1        0.0153
     13 C          62.9710   84.7193    6.9864 C.ar    1  UNL1        0.0013
     14 C          61.6642   84.6482    6.2535 C.ar    1  UNL1        0.0001
     15 C          60.4219   85.2099    6.8790 C.ar    1  UNL1        0.0013
     16 C          60.4865   85.8427    8.2374 C.ar    1  UNL1        0.0153
     17 O          61.3822   88.5631   11.8965 O.3     1  UNL1       -0.4341
     18 C          61.4352   90.0565   12.0265 C.3     1  UNL1        0.2100
     19 C          65.3875   92.1959   11.7988 C.3     1  UNL1        0.0297
     20 C          64.5446   92.0445   10.5673 C.3     1  UNL1        0.0026
     21 C          63.2272   91.3313   10.6432 C.3     1  UNL1        0.0038
     22 C          62.7526   90.7696   11.9506 C.3     1  UNL1        0.0439
     23 C          63.5955   90.9211   13.1820 C.3     1  UNL1        0.0038
     24 C          64.9129   91.6343   13.1061 C.3     1  UNL1        0.0026
     25 C          66.7049   92.9091   11.7228 C.3     1  UNL1        0.1426
     26 O          66.7524   94.4066   11.7944 O.3     1  UNL1       -0.3478
     27 C          66.8695   95.2142   10.5358 C.3     1  UNL1        0.1835
     28 O          67.0805   94.8908    7.9665 O.co2   1  UNL1       -0.5466
     29 C          67.6040   94.6568    9.3526 C.2     1  UNL1        0.0801
     30 O          68.8620   93.8655    9.5555 O.co2   1  UNL1       -0.5466
@<TRIPOS>UNITY_ATOM_ATTR
28 1
charge -1
@<TRIPOS>BOND
     1    28    29   ar
     2    29    30   ar
     3    29    27    1
     4    27    26    1
     5    26    25    1
     6    19    25    1
     7    19    20    1
     8    20    21    1
     9    21    22    1
    10    22    18    1
    11    18    17    1
    12    17     1    1
    13     1     2    2
    14     1     3   am
    15     3    11    1
    16    11    12   ar
    17    12    13   ar
    18    13    14   ar
    19    14    15   ar
    20    15    16   ar
    21     3     4    1
    22     4     5   ar
    23     5     6   ar
    24     6     7   ar
    25     7     8    1
    26     7     9   ar
    27     9    10   ar
    28    22    23    1
    29    23    24    1
    30    24    19    1
    31    16    11   ar
    32    10     4   ar
@<TRIPOS>MOLECULE
*****
 30 32 0 0 0
SMALL
GASTEIGER

@<TRIPOS>ATOM
      1 C          62.7415   87.6893   11.7010 C.2     1  UNL1        0.4125
      2 O          62.3037   88.9819   11.0787 O.2     1  UNL1       -0.2255
      3 N          62.3184   86.3839   11.0950 N.am    1  UNL1       -0.2037
      4 C          62.7561   85.0913   11.7174 C.ar    1  UNL1        0.0613
      5 C          62.4718   84.8218   13.1653 C.ar    1  UNL1        0.0162
      6 C          62.9096   83.5290   13.7877 C.ar    1  UNL1        0.0127
      7 C          63.6317   82.5059   12.9621 C.ar    1  UNL1        0.0578
      8 CL         64.0694   81.2132   13.5844 Cl      1  UNL1       -0.0822
      9 C          63.9160   82.7753   11.5141 C.ar    1  UNL1        0.0127
     10 C          63.4782   84.0680   10.8918 C.ar    1  UNL1        0.0162
     11 C          61.4575   86.3713    9.8667 C.ar    1  UNL1        0.0613
     12 C          60.1143   87.0387    9.8853 C.ar    1  UNL1        0.0153
     13 C          59.2535   87.0261    8.6570 C.ar    1  UNL1        0.0013
     14 C          59.7358   86.3461    7.4101 C.ar    1  UNL1        0.0001
     15 C          61.0791   85.6787    7.3914 C.ar    1  UNL1        0.0013
     16 C          61.9399   85.6913    8.6197 C.ar    1  UNL1        0.0153
     17 O          63.6023   87.7019   12.9293 O.3     1  UNL1       -0.4341
     18 C          63.5586   88.8743   13.8638 C.3     1  UNL1        0.2100
     19 C          65.7199   92.6768   12.8057 C.3     1  UNL1        0.0297
     20 C          64.6276   92.1625   11.9157 C.3     1  UNL1        0.0026
     21 C          63.9071   90.8950   12.2684 C.3     1  UNL1        0.0038
     22 C          64.2791   90.1418   13.5111 C.3     1  UNL1        0.0439
     23 C          65.3714   90.6562   14.4011 C.3     1  UNL1        0.0038
     24 C          66.0919   91.9237   14.0484 C.3     1  UNL1        0.0026
     25 C          66.4404   93.9443   12.4530 C.3     1  UNL1        0.1426
     26 O          65.9349   94.8084   11.3359 O.3     1  UNL1       -0.3478
     27 C          66.9049   95.5314   10.4491 C.3     1  UNL1        0.1835
     28 O          68.7635   93.8979    9.6570 O.co2   1  UNL1       -0.5466
     29 C          67.6031   94.7955    9.3441 C.2     1  UNL1        0.0801
     30 O          67.1409   94.9571    7.9263 O.co2   1  UNL1       -0.5466
@<TRIPOS>UNITY_ATOM_ATTR
28 1
charge -1
@<TRIPOS>BOND
     1    28    29   ar
     2    29    30   ar
     3    29    27    1
     4    27    26    1
     5    26    25    1
     6    19    25    1
     7    19    20    1
     8    20    21    1
     9    21    22    1
    10    22    18    1
    11    18    17    1
    12    17     1    1
    13     1     2    2
    14     1     3   am
    15     3    11    1
    16    11    12   ar
    17    12    13   ar
    18    13    14   ar
    19    14    15   ar
    20    15    16   ar
    21     3     4    1
    22     4     5   ar
    23     5     6   ar
    24     6     7   ar
    25     7     8    1
    26     7     9   ar
    27     9    10   ar
    28    22    23    1
    29    23    24    1
    30    24    19    1
    31    16    11   ar
    32    10     4   ar
@<TRIPOS>MOLECULE
*****
 30 32 0 0 0
SMALL
GASTEIGER

@<TRIPOS>ATOM
      1 C          61.3499   87.8584   10.5248 C.2     1  UNL1        0.4125
      2 O          60.7575   88.6238    9.3790 O.2     1  UNL1       -0.2255
      3 N          61.8759   86.4704   10.3075 N.am    1  UNL1       -0.2037
      4 C          62.4683   85.7049   11.4534 C.ar    1  UNL1        0.0613
      5 C          63.1784   86.4341   12.5552 C.ar    1  UNL1        0.0162
      6 C          63.7708   85.6685   13.7011 C.ar    1  UNL1        0.0127
      7 C          63.6532   84.1738   13.7451 C.ar    1  UNL1        0.0578
      8 CL         64.2456   83.4083   14.8909 Cl      1  UNL1       -0.0822
      9 C          62.9431   83.4446   12.6433 C.ar    1  UNL1        0.0127
     10 C          62.3507   84.2101   11.4974 C.ar    1  UNL1        0.0162
     11 C          61.8093   85.8481    8.9444 C.ar    1  UNL1        0.0613
     12 C          60.5098   85.8187    8.1959 C.ar    1  UNL1        0.0153
     13 C          60.4432   85.1964    6.8327 C.ar    1  UNL1        0.0013
     14 C          61.6762   84.6034    6.2180 C.ar    1  UNL1        0.0001
     15 C          62.9759   84.6327    6.9664 C.ar    1  UNL1        0.0013
     16 C          63.0424   85.2551    8.3296 C.ar    1  UNL1        0.0153
     17 O          61.4165   88.4807   11.8880 O.3     1  UNL1       -0.4341
     18 C          61.4557   89.9734   12.0299 C.3     1  UNL1        0.2100
     19 C          65.4046   92.1313   12.0222 C.3     1  UNL1        0.0297
     20 C          64.5882   92.0567   10.7661 C.3     1  UNL1        0.0026
     21 C          63.2719   91.3374   10.7687 C.3     1  UNL1        0.0038
     22 C          62.7720   90.6927   12.0273 C.3     1  UNL1        0.0439
     23 C          63.5884   90.7673   13.2835 C.3     1  UNL1        0.0038
     24 C          64.9047   91.4866   13.2809 C.3     1  UNL1        0.0026
     25 C          66.7209   92.8506   12.0197 C.3     1  UNL1        0.1426
     26 O          67.6024   92.8057   13.2324 O.3     1  UNL1       -0.3478
     27 C          67.2318   93.5865   14.4584 C.3     1  UNL1        0.1835
     28 O          68.7651   94.6261   16.2801 O.co2   1  UNL1       -0.5466
     29 C          68.0409   93.4411   15.7132 C.2     1  UNL1        0.0801
     30 O          68.1256   92.1108   16.4010 O.co2   1  UNL1       -0.5466
@<TRIPOS>UNITY_ATOM_ATTR
28 1
charge -1
@<TRIPOS>BOND
     1    28    29   ar
     2    29    30   ar
     3    29    27    1
     4    27    26    1
     5    26    25    1
     6    19    25    1
     7    19    20    1
     8    20    21    1
     9    21    22    1
    10    22    18    1
    11    18    17    1
    12    17     1    1
    13     1     2    2
    14     1     3   am
    15     3    11    1
    16    11    12   ar
    17    12    13   ar
    18    13    14   ar
    19    14    15   ar
    20    15    16   ar
    21     3     4    1
    22     4     5   ar
    23     5     6   ar
    24     6     7   ar
    25     7     8    1
    26     7     9   ar
    27     9    10   ar
    28    22    23    1
    29    23    24    1
    30    24    19    1
    31    16    11   ar
    32    10     4   ar
@<TRIPOS>MOLECULE
*****
 30 32 0 0 0
SMALL
GASTEIGER

@<TRIPOS>ATOM
      1 C          62.0158   86.0225   11.2356 C.2     1  UNL1        0.4125
      2 O          61.7858   85.7142    9.7858 O.2     1  UNL1       -0.2255
      3 N          62.5887   84.9747   12.1435 N.am    1  UNL1       -0.2037
      4 C          62.8187   85.2830   13.5933 C.ar    1  UNL1        0.0613
      5 C          63.8799   86.2652   13.9920 C.ar    1  UNL1        0.0162
      6 C          64.1100   86.5734   15.4420 C.ar    1  UNL1        0.0127
      7 C          63.2788   85.8995   16.4930 C.ar    1  UNL1        0.0578
      8 CL         63.5089   86.2077   17.9429 Cl      1  UNL1       -0.0822
      9 C          62.2176   84.9172   16.0943 C.ar    1  UNL1        0.0127
     10 C          61.9875   84.6089   14.6445 C.ar    1  UNL1        0.0162
     11 C          62.9314   83.6187   11.6015 C.ar    1  UNL1        0.0613
     12 C          63.8778   83.4906   10.4449 C.ar    1  UNL1        0.0153
     13 C          64.2206   82.1346    9.9028 C.ar    1  UNL1        0.0013
     14 C          63.6169   80.9067   10.5174 C.ar    1  UNL1        0.0001
     15 C          62.6704   81.0348   11.6741 C.ar    1  UNL1        0.0013
     16 C          62.3276   82.3908   12.2161 C.ar    1  UNL1        0.0153
     17 O          61.6731   87.3785   11.7777 O.3     1  UNL1       -0.4341
     18 C          61.8521   88.5961   10.9202 C.3     1  UNL1        0.2100
     19 C          64.7137   91.8331   12.1785 C.3     1  UNL1        0.0297
     20 C          64.3369   90.7485   13.1436 C.3     1  UNL1        0.0026
     21 C          63.3830   89.6695   12.7242 C.3     1  UNL1        0.0038
     22 C          62.8060   89.6751   11.3397 C.3     1  UNL1        0.0439
     23 C          63.1828   90.7598   10.3745 C.3     1  UNL1        0.0038
     24 C          64.1366   91.8388   10.7940 C.3     1  UNL1        0.0026
     25 C          65.6675   92.9122   12.5979 C.3     1  UNL1        0.1426
     26 O          66.8460   93.2491   11.7332 O.3     1  UNL1       -0.3478
     27 C          66.7006   94.2472   10.6229 C.3     1  UNL1        0.1835
     28 O          69.0189   93.6307    9.6253 O.co2   1  UNL1       -0.5466
     29 C          67.6496   94.2208    9.4616 C.2     1  UNL1        0.0801
     30 O          67.2294   94.7844    8.1366 O.co2   1  UNL1       -0.5466
@<TRIPOS>UNITY_ATOM_ATTR
28 1
charge -1
@<TRIPOS>BOND
     1    28    29   ar
     2    29    30   ar
     3    29    27    1
     4    27    26    1
     5    26    25    1
     6    19    25    1
     7    19    20    1
     8    20    21    1
     9    21    22    1
    10    22    18    1
    11    18    17    1
    12    17     1    1
    13     1     2    2
    14     1     3   am
    15     3    11    1
    16    11    12   ar
    17    12    13   ar
    18    13    14   ar
    19    14    15   ar
    20    15    16   ar
    21     3     4    1
    22     4     5   ar
    23     5     6   ar
    24     6     7   ar
    25     7     8    1
    26     7     9   ar
    27     9    10   ar
    28    22    23    1
    29    23    24    1
    30    24    19    1
    31    16    11   ar
    32    10     4   ar
