@<TRIPOS>MOLECULE
*****
 26 29 0 0 0
SMALL
GASTEIGER

@<TRIPOS>ATOM
      1 C          61.8174   87.9037   11.2431 C.2     1  UNL1        0.0069
      2 C          62.5715   86.7628   11.8592 C.ar    1  UNL1        0.0391
      3 C          63.2586   86.9444   13.1802 C.ar    1  UNL1        0.0145
      4 C          64.0127   85.8034   13.7963 C.ar    1  UNL1        0.0576
      5 CL         64.6998   85.9849   15.1173 Cl      1  UNL1       -0.0823
      6 C          64.0798   84.4810   13.0916 C.ar    1  UNL1        0.0108
      7 C          63.3927   84.2995   11.7706 C.ar    1  UNL1        0.0219
      8 C          63.4597   82.9771   11.0657 C.3     1  UNL1        0.0349
      9 C          62.6385   85.4405   11.1544 C.ar    1  UNL1        0.1887
     10 N          61.9514   85.2589    9.8334 N.2     1  UNL1       -0.0363
     11 C          61.1973   86.3998    9.2173 C.2     1  UNL1        0.3865
     12 N          60.4267   86.5180    7.9358 N.2     1  UNL1        0.0818
     13 N          59.8834   87.9134    7.8487 N.2     1  UNL1       -0.0421
     14 C          60.3182   88.6577    9.0762 C.2     1  UNL1        0.0990
     15 C          59.9973   90.0865    9.4009 C.3     1  UNL1        0.0523
     16 C          61.1303   87.7222    9.9221 C.3     1  UNL1        0.1749
     17 C          61.7504   89.2261   11.9479 C.3     1  UNL1        0.1551
     18 O          60.5633   89.5619   12.8013 O.3     1  UNL1       -0.3758
     19 H          59.9367   88.8214   12.7894 H       1  UNL1        0.2112
     20 C          66.2305   93.1727   11.3540 C.3     1  UNL1        0.0737
     21 C          65.1105   92.1860   11.5024 C.ar    1  UNL1        0.1396
     22 N          64.2444   91.8517   10.3243 N.ar    1  UNL1       -0.2294
     23 C          63.1243   90.8651   10.4728 C.ar    1  UNL1        0.1001
     24 C          62.8704   90.2128   11.7994 C.ar    1  UNL1        0.0465
     25 C          63.7365   90.5470   12.9777 C.ar    1  UNL1        0.1001
     26 N          64.8565   91.5337   12.8292 N.ar    1  UNL1       -0.2294
@<TRIPOS>BOND
     1    20    21    1
     2    21    22   ar
     3    22    23   ar
     4    23    24   ar
     5    24    17    1
     6    17    18    1
     7    17     1    1
     8     1     2    2
     9     2     3   ar
    10     3     4   ar
    11     4     5    1
    12     4     6   ar
    13     6     7   ar
    14     7     8    1
    15     7     9   ar
    16     9    10    2
    17    10    11    1
    18    11    12    2
    19    12    13    1
    20    13    14    2
    21    14    15    1
    22    14    16    1
    23    24    25   ar
    24    25    26   ar
    25    26    21   ar
    26    16     1    1
    27     9     2   ar
    28    16    11    1
    29    18    19    1
@<TRIPOS>MOLECULE
*****
 26 29 0 0 0
SMALL
GASTEIGER

@<TRIPOS>ATOM
      1 C          61.9601   87.2444   11.4230 C.2     1  UNL1        0.0069
      2 C          62.5663   86.1035   12.1851 C.ar    1  UNL1        0.0391
      3 C          62.1049   84.6998   11.9267 C.ar    1  UNL1        0.0145
      4 C          62.7111   83.5589   12.6888 C.ar    1  UNL1        0.0576
      5 CL         62.2498   82.1552   12.4304 Cl      1  UNL1       -0.0823
      6 C          63.7787   83.8216   13.7093 C.ar    1  UNL1        0.0108
      7 C          64.2400   85.2253   13.9677 C.ar    1  UNL1        0.0219
      8 C          65.3075   85.4881   14.9882 C.3     1  UNL1        0.0349
      9 C          63.6337   86.3663   13.2056 C.ar    1  UNL1        0.1887
     10 N          64.0951   87.7701   13.4640 N.2     1  UNL1       -0.0363
     11 C          63.4889   88.9110   12.7019 C.2     1  UNL1        0.3865
     12 N          63.7392   90.3894   12.7407 N.2     1  UNL1        0.0818
     13 N          62.8264   91.0403   11.7442 N.2     1  UNL1       -0.0421
     14 C          62.0120   89.9642   11.0895 C.2     1  UNL1        0.0990
     15 C          60.9709   90.1683   10.0291 C.3     1  UNL1        0.0523
     16 C          62.4214   88.6482   11.6814 C.3     1  UNL1        0.1749
     17 C          60.8926   86.9816   10.4026 C.3     1  UNL1        0.1551
     18 O          59.4841   87.4302   10.6579 O.3     1  UNL1       -0.3758
     19 H          59.4363   87.8698   11.5213 H       1  UNL1        0.2112
     20 C          62.2562   84.1362    5.2992 C.3     1  UNL1        0.0737
     21 C          61.9152   84.8476    6.5750 C.ar    1  UNL1        0.1396
     22 N          60.5154   85.3308    6.8133 N.ar    1  UNL1       -0.2294
     23 C          60.1745   86.0422    8.0892 C.ar    1  UNL1        0.1001
     24 C          61.2335   86.2703    9.1267 C.ar    1  UNL1        0.0465
     25 C          62.6334   85.7871    8.8885 C.ar    1  UNL1        0.1001
     26 N          62.9743   85.0757    7.6127 N.ar    1  UNL1       -0.2294
@<TRIPOS>BOND
     1    20    21    1
     2    21    22   ar
     3    22    23   ar
     4    23    24   ar
     5    24    17    1
     6    17    18    1
     7    17     1    1
     8     1     2    2
     9     2     3   ar
    10     3     4   ar
    11     4     5    1
    12     4     6   ar
    13     6     7   ar
    14     7     8    1
    15     7     9   ar
    16     9    10    2
    17    10    11    1
    18    11    12    2
    19    12    13    1
    20    13    14    2
    21    14    15    1
    22    14    16    1
    23    24    25   ar
    24    25    26   ar
    25    26    21   ar
    26    16     1    1
    27     9     2   ar
    28    16    11    1
    29    18    19    1
@<TRIPOS>MOLECULE
*****
 26 29 0 0 0
SMALL
GASTEIGER

@<TRIPOS>ATOM
      1 C          63.3629   84.0281   12.8038 C.2     1  UNL1        0.0069
      2 C          63.4736   85.1334   13.8119 C.ar    1  UNL1        0.0391
      3 C          63.9618   86.4874   13.3896 C.ar    1  UNL1        0.0145
      4 C          64.0725   87.5927   14.3976 C.ar    1  UNL1        0.0576
      5 CL         64.5607   88.9467   13.9755 Cl      1  UNL1       -0.0823
      6 C          63.6948   87.3440   15.8279 C.ar    1  UNL1        0.0108
      7 C          63.2066   85.9900   16.2501 C.ar    1  UNL1        0.0219
      8 C          62.8290   85.7412   17.6803 C.3     1  UNL1        0.0349
      9 C          63.0960   84.8847   15.2420 C.ar    1  UNL1        0.1887
     10 N          62.6077   83.5306   15.6643 N.2     1  UNL1       -0.0363
     11 C          62.4971   82.4253   14.6562 C.2     1  UNL1        0.3865
     12 N          62.0515   80.9981   14.7765 N.2     1  UNL1        0.0818
     13 N          62.1538   80.3648   13.4207 N.2     1  UNL1       -0.0421
     14 C          62.6626   81.4006   12.4624 C.2     1  UNL1        0.0990
     15 C          62.9148   81.1984   10.9976 C.3     1  UNL1        0.0523
     16 C          62.8747   82.6741   13.2260 C.3     1  UNL1        0.1749
     17 C          63.7406   84.2769   11.3736 C.3     1  UNL1        0.1551
     18 O          65.0677   83.8071   10.8557 O.3     1  UNL1       -0.3758
     19 H          65.5551   83.3654   11.5686 H       1  UNL1        0.2112
     20 C          59.9428   87.1508    7.7242 C.3     1  UNL1        0.0737
     21 C          60.8923   86.4323    8.6366 C.ar    1  UNL1        0.1396
     22 N          60.6730   86.4606   10.1201 N.ar    1  UNL1       -0.2294
     23 C          61.6224   85.7422   11.0326 C.ar    1  UNL1        0.1001
     24 C          62.7911   84.9954   10.4613 C.ar    1  UNL1        0.0465
     25 C          63.0105   84.9670    8.9776 C.ar    1  UNL1        0.1001
     26 N          62.0610   85.6854    8.0653 N.ar    1  UNL1       -0.2294
@<TRIPOS>BOND
     1    20    21    1
     2    21    22   ar
     3    22    23   ar
     4    23    24   ar
     5    24    17    1
     6    17    18    1
     7    17     1    1
     8     1     2    2
     9     2     3   ar
    10     3     4   ar
    11     4     5    1
    12     4     6   ar
    13     6     7   ar
    14     7     8    1
    15     7     9   ar
    16     9    10    2
    17    10    11    1
    18    11    12    2
    19    12    13    1
    20    13    14    2
    21    14    15    1
    22    14    16    1
    23    24    25   ar
    24    25    26   ar
    25    26    21   ar
    26    16     1    1
    27     9     2   ar
    28    16    11    1
    29    18    19    1
@<TRIPOS>MOLECULE
*****
 26 29 0 0 0
SMALL
GASTEIGER

@<TRIPOS>ATOM
      1 C          64.0480   90.8291   13.4737 C.2     1  UNL1        0.0069
      2 C          65.3930   91.4550   13.2519 C.ar    1  UNL1        0.0391
      3 C          66.3581   91.5826   14.3931 C.ar    1  UNL1        0.0145
      4 C          67.7031   92.2085   14.1712 C.ar    1  UNL1        0.0576
      5 CL         68.6683   92.3362   15.3123 Cl      1  UNL1       -0.0823
      6 C          68.0830   92.7068   12.8083 C.ar    1  UNL1        0.0108
      7 C          67.1178   92.5792   11.6673 C.ar    1  UNL1        0.0219
      8 C          67.4976   93.0774   10.3043 C.3     1  UNL1        0.0349
      9 C          65.7728   91.9532   11.8891 C.ar    1  UNL1        0.1887
     10 N          64.8076   91.8256   10.7479 N.2     1  UNL1       -0.0363
     11 C          63.4626   91.1997   10.9697 C.2     1  UNL1        0.3865
     12 N          62.3114   90.9399   10.0437 N.2     1  UNL1        0.0818
     13 N          61.2202   90.2811   10.8344 N.2     1  UNL1       -0.0421
     14 C          61.6969   90.1338   12.2490 C.2     1  UNL1        0.0990
     15 C          60.9235   89.5254   13.3811 C.3     1  UNL1        0.0523
     16 C          63.0828   90.7015   12.3326 C.3     1  UNL1        0.1749
     17 C          63.6682   90.3309   14.8366 C.3     1  UNL1        0.1551
     18 O          63.2859   91.3048   15.9116 O.3     1  UNL1       -0.3758
     19 H          63.3364   92.2083   15.5622 H       1  UNL1        0.2112
     20 C          63.6777   84.4425   15.9885 C.3     1  UNL1        0.0737
     21 C          63.6753   85.9146   15.7005 C.ar    1  UNL1        0.1396
     22 N          64.1900   86.4226   14.3864 N.ar    1  UNL1       -0.2294
     23 C          64.1876   87.8947   14.0984 C.ar    1  UNL1        0.1001
     24 C          63.6705   88.8588   15.1246 C.ar    1  UNL1        0.0465
     25 C          63.1558   88.3509   16.4388 C.ar    1  UNL1        0.1001
     26 N          63.1582   86.8788   16.7268 N.ar    1  UNL1       -0.2294
@<TRIPOS>BOND
     1    20    21    1
     2    21    22   ar
     3    22    23   ar
     4    23    24   ar
     5    24    17    1
     6    17    18    1
     7    17     1    1
     8     1     2    2
     9     2     3   ar
    10     3     4   ar
    11     4     5    1
    12     4     6   ar
    13     6     7   ar
    14     7     8    1
    15     7     9   ar
    16     9    10    2
    17    10    11    1
    18    11    12    2
    19    12    13    1
    20    13    14    2
    21    14    15    1
    22    14    16    1
    23    24    25   ar
    24    25    26   ar
    25    26    21   ar
    26    16     1    1
    27     9     2   ar
    28    16    11    1
    29    18    19    1
@<TRIPOS>MOLECULE
*****
 26 29 0 0 0
SMALL
GASTEIGER

@<TRIPOS>ATOM
      1 C          61.8005   86.7377    9.4756 C.2     1  UNL1        0.0069
      2 C          61.7897   87.8191   10.5149 C.ar    1  UNL1        0.0391
      3 C          62.9486   87.9667   11.4558 C.ar    1  UNL1        0.0145
      4 C          62.9378   89.0482   12.4951 C.ar    1  UNL1        0.0576
      5 CL         64.0967   89.1958   13.4360 Cl      1  UNL1       -0.0823
      6 C          61.7681   89.9821   12.5938 C.ar    1  UNL1        0.0108
      7 C          60.6092   89.8344   11.6529 C.ar    1  UNL1        0.0219
      8 C          59.4394   90.7682   11.7515 C.3     1  UNL1        0.0349
      9 C          60.6200   88.7529   10.6135 C.ar    1  UNL1        0.1887
     10 N          59.4610   88.6053    9.6727 N.2     1  UNL1       -0.0363
     11 C          59.4719   87.5238    8.6333 C.2     1  UNL1        0.3865
     12 N          58.4800   87.1375    7.5764 N.2     1  UNL1        0.0818
     13 N          59.0367   85.9649    6.8247 N.2     1  UNL1       -0.0421
     14 C          60.3727   85.6265    7.4170 C.2     1  UNL1        0.0990
     15 C          61.2803   84.5191    6.9699 C.3     1  UNL1        0.0523
     16 C          60.6416   86.5900    8.5347 C.3     1  UNL1        0.1749
     17 C          62.9703   85.8038    9.3770 C.3     1  UNL1        0.1551
     18 O          64.0205   86.0253    8.3291 O.3     1  UNL1       -0.3758
     19 H          63.7931   86.8083    7.8037 H       1  UNL1        0.2112
     20 C          63.4485   81.1831   13.1744 C.3     1  UNL1        0.0737
     21 C          63.3289   82.3383   12.2250 C.ar    1  UNL1        0.1396
     22 N          64.0025   82.2814   10.8860 N.ar    1  UNL1       -0.2294
     23 C          63.8830   83.4366    9.9366 C.ar    1  UNL1        0.1001
     24 C          63.0898   84.6487   10.3263 C.ar    1  UNL1        0.0465
     25 C          62.4162   84.7056   11.6654 C.ar    1  UNL1        0.1001
     26 N          62.5357   83.5504   12.6147 N.ar    1  UNL1       -0.2294
@<TRIPOS>BOND
     1    20    21    1
     2    21    22   ar
     3    22    23   ar
     4    23    24   ar
     5    24    17    1
     6    17    18    1
     7    17     1    1
     8     1     2    2
     9     2     3   ar
    10     3     4   ar
    11     4     5    1
    12     4     6   ar
    13     6     7   ar
    14     7     8    1
    15     7     9   ar
    16     9    10    2
    17    10    11    1
    18    11    12    2
    19    12    13    1
    20    13    14    2
    21    14    15    1
    22    14    16    1
    23    24    25   ar
    24    25    26   ar
    25    26    21   ar
    26    16     1    1
    27     9     2   ar
    28    16    11    1
    29    18    19    1
@<TRIPOS>MOLECULE
*****
 26 29 0 0 0
SMALL
GASTEIGER

@<TRIPOS>ATOM
      1 C          63.4403   85.3783   11.9535 C.2     1  UNL1        0.0069
      2 C          62.6446   86.0850   10.8964 C.ar    1  UNL1        0.0391
      3 C          62.2110   85.3464    9.6649 C.ar    1  UNL1        0.0145
      4 C          61.4153   86.0530    8.6078 C.ar    1  UNL1        0.0576
      5 CL         60.9816   85.3145    7.3763 Cl      1  UNL1       -0.0823
      6 C          61.0531   87.4982    8.7821 C.ar    1  UNL1        0.0108
      7 C          61.4868   88.2367   10.0136 C.ar    1  UNL1        0.0219
      8 C          61.1247   89.6819   10.1879 C.3     1  UNL1        0.0349
      9 C          62.2825   87.5301   11.0708 C.ar    1  UNL1        0.1887
     10 N          62.7161   88.2687   12.3023 N.2     1  UNL1       -0.0363
     11 C          63.5118   87.5620   13.3594 C.2     1  UNL1        0.3865
     12 N          64.0749   88.0262   14.6699 N.2     1  UNL1        0.0818
     13 N          64.7850   86.8678   15.3055 N.2     1  UNL1       -0.0421
     14 C          64.6608   85.6878   14.3878 C.2     1  UNL1        0.0990
     15 C          65.2245   84.3191   14.6303 C.3     1  UNL1        0.0523
     16 C          63.8739   86.1169   13.1850 C.3     1  UNL1        0.1749
     17 C          63.8023   83.9332   11.7792 C.3     1  UNL1        0.1551
     18 O          64.9903   83.5528   10.9458 O.3     1  UNL1       -0.3758
     19 H          65.4095   84.3544   10.5956 H       1  UNL1        0.2112
     20 C          60.4993   79.6738   14.4150 C.3     1  UNL1        0.0737
     21 C          61.3251   80.7386   13.7560 C.ar    1  UNL1        0.1396
     22 N          62.1223   80.4163   12.5271 N.ar    1  UNL1       -0.2294
     23 C          62.9481   81.4812   11.8680 C.ar    1  UNL1        0.1001
     24 C          62.9766   82.8683   12.4381 C.ar    1  UNL1        0.0465
     25 C          62.1793   83.1907   13.6672 C.ar    1  UNL1        0.1001
     26 N          61.3536   82.1258   14.3261 N.ar    1  UNL1       -0.2294
@<TRIPOS>BOND
     1    20    21    1
     2    21    22   ar
     3    22    23   ar
     4    23    24   ar
     5    24    17    1
     6    17    18    1
     7    17     1    1
     8     1     2    2
     9     2     3   ar
    10     3     4   ar
    11     4     5    1
    12     4     6   ar
    13     6     7   ar
    14     7     8    1
    15     7     9   ar
    16     9    10    2
    17    10    11    1
    18    11    12    2
    19    12    13    1
    20    13    14    2
    21    14    15    1
    22    14    16    1
    23    24    25   ar
    24    25    26   ar
    25    26    21   ar
    26    16     1    1
    27     9     2   ar
    28    16    11    1
    29    18    19    1
@<TRIPOS>MOLECULE
*****
 26 29 0 0 0
SMALL
GASTEIGER

@<TRIPOS>ATOM
      1 C          63.1682   86.2466   12.4081 C.2     1  UNL1        0.0069
      2 C          63.3049   87.7400   12.4374 C.ar    1  UNL1        0.0391
      3 C          62.9855   88.5465   11.2135 C.ar    1  UNL1        0.0145
      4 C          63.1222   90.0400   11.2429 C.ar    1  UNL1        0.0576
      5 CL         62.8029   90.8465   10.0191 Cl      1  UNL1       -0.0823
      6 C          63.5781   90.7270   12.4959 C.ar    1  UNL1        0.0108
      7 C          63.8974   89.9205   13.7197 C.ar    1  UNL1        0.0219
      8 C          64.3534   90.6075   14.9728 C.3     1  UNL1        0.0349
      9 C          63.7608   88.4270   13.6904 C.ar    1  UNL1        0.1887
     10 N          64.0801   87.6205   14.9142 N.2     1  UNL1       -0.0363
     11 C          63.9435   86.1270   14.8849 C.2     1  UNL1        0.3865
     12 N          64.1847   85.0764   15.9280 N.2     1  UNL1        0.0818
     13 N          63.8778   83.7402   15.3196 N.2     1  UNL1       -0.0421
     14 C          63.4469   83.9649   13.9005 C.2     1  UNL1        0.0990
     15 C          63.0459   82.9011   12.9219 C.3     1  UNL1        0.0523
     16 C          63.4875   85.4400   13.6318 C.3     1  UNL1        0.1749
     17 C          62.7122   85.5596   11.1550 C.3     1  UNL1        0.1551
     18 O          63.2301   84.1926   10.8181 O.3     1  UNL1       -0.3758
     19 H          63.8450   83.9005   11.5091 H       1  UNL1        0.2112
     20 C          58.8170   88.2792    7.4901 C.3     1  UNL1        0.0737
     21 C          59.7908   87.5993    8.4064 C.ar    1  UNL1        0.1396
     22 N          59.6516   87.7478    9.8924 N.ar    1  UNL1       -0.2294
     23 C          60.6254   87.0679   10.8087 C.ar    1  UNL1        0.1001
     24 C          61.7384   86.2395   10.2388 C.ar    1  UNL1        0.0465
     25 C          61.8777   86.0909    8.7526 C.ar    1  UNL1        0.1001
     26 N          60.9039   86.7708    7.8365 N.ar    1  UNL1       -0.2294
@<TRIPOS>BOND
     1    20    21    1
     2    21    22   ar
     3    22    23   ar
     4    23    24   ar
     5    24    17    1
     6    17    18    1
     7    17     1    1
     8     1     2    2
     9     2     3   ar
    10     3     4   ar
    11     4     5    1
    12     4     6   ar
    13     6     7   ar
    14     7     8    1
    15     7     9   ar
    16     9    10    2
    17    10    11    1
    18    11    12    2
    19    12    13    1
    20    13    14    2
    21    14    15    1
    22    14    16    1
    23    24    25   ar
    24    25    26   ar
    25    26    21   ar
    26    16     1    1
    27     9     2   ar
    28    16    11    1
    29    18    19    1
@<TRIPOS>MOLECULE
*****
 26 29 0 0 0
SMALL
GASTEIGER

@<TRIPOS>ATOM
      1 C          62.8734   85.2997   11.8001 C.2     1  UNL1        0.0069
      2 C          62.1590   85.8759   10.6137 C.ar    1  UNL1        0.0391
      3 C          61.3180   87.1081   10.7704 C.ar    1  UNL1        0.0145
      4 C          60.6036   87.6843    9.5839 C.ar    1  UNL1        0.0576
      5 CL         59.7627   88.9165    9.7405 Cl      1  UNL1       -0.0823
      6 C          60.7302   87.0284    8.2408 C.ar    1  UNL1        0.0108
      7 C          61.5712   85.7962    8.0842 C.ar    1  UNL1        0.0219
      8 C          61.6977   85.1403    6.7412 C.3     1  UNL1        0.0349
      9 C          62.2856   85.2200    9.2707 C.ar    1  UNL1        0.1887
     10 N          63.1266   83.9878    9.1141 N.2     1  UNL1       -0.0363
     11 C          63.8410   83.4116   10.3005 C.2     1  UNL1        0.3865
     12 N          64.7341   82.2159   10.4509 N.2     1  UNL1        0.0818
     13 N          65.1595   82.1329   11.8869 N.2     1  UNL1       -0.0421
     14 C          64.5293   83.2773   12.6240 C.2     1  UNL1        0.0990
     15 C          64.6865   83.5785   14.0850 C.3     1  UNL1        0.0523
     16 C          63.7144   84.0675   11.6435 C.3     1  UNL1        0.1749
     17 C          62.7468   85.9557   13.1431 C.3     1  UNL1        0.1551
     18 O          62.0011   85.2664   14.2472 O.3     1  UNL1       -0.3758
     19 H          61.6670   84.4134   13.9283 H       1  UNL1        0.2112
     20 C          65.2230   91.3367   14.0990 C.3     1  UNL1        0.0737
     21 C          64.6040   89.9913   13.8601 C.ar    1  UNL1        0.1396
     22 N          64.8359   88.8752   14.8349 N.ar    1  UNL1       -0.2294
     23 C          64.2169   87.5299   14.5959 C.ar    1  UNL1        0.1001
     24 C          63.3659   87.3009   13.3821 C.ar    1  UNL1        0.0465
     25 C          63.1339   88.4171   12.4072 C.ar    1  UNL1        0.1001
     26 N          63.7529   89.7623   12.6462 N.ar    1  UNL1       -0.2294
@<TRIPOS>BOND
     1    20    21    1
     2    21    22   ar
     3    22    23   ar
     4    23    24   ar
     5    24    17    1
     6    17    18    1
     7    17     1    1
     8     1     2    2
     9     2     3   ar
    10     3     4   ar
    11     4     5    1
    12     4     6   ar
    13     6     7   ar
    14     7     8    1
    15     7     9   ar
    16     9    10    2
    17    10    11    1
    18    11    12    2
    19    12    13    1
    20    13    14    2
    21    14    15    1
    22    14    16    1
    23    24    25   ar
    24    25    26   ar
    25    26    21   ar
    26    16     1    1
    27     9     2   ar
    28    16    11    1
    29    18    19    1
