@<TRIPOS>MOLECULE
*****
 49 53 0 0 0
SMALL
GASTEIGER

@<TRIPOS>ATOM
      1 C          61.1242   88.7123    9.4329 C.3     1  UNL1        0.0964
      2 C          60.3347   89.9003    8.9688 C.3     1  UNL1        0.0780
      3 N          59.3543   89.7559    7.8428 N.3     1  UNL1       -0.2970
      4 C          59.1634   88.4235    7.1809 C.3     1  UNL1        0.0689
      5 C          59.9529   87.2354    7.6450 C.3     1  UNL1        0.0220
      6 C          60.9333   87.3798    8.7710 C.3     1  UNL1        0.0337
      7 H          59.6447   90.4077    7.1141 H       1  UNL1        0.1233
      8 C          61.7228   86.1919    9.2351 C.ar    1  UNL1       -0.0217
      9 C          61.5589   85.6836   10.6368 C.ar    1  UNL1       -0.0012
     10 C          62.3484   84.4956   11.1009 C.ar    1  UNL1        0.0366
     11 C          63.3018   83.8159   10.1633 C.ar    1  UNL1        0.1387
     12 C          63.4657   84.3242    8.7616 C.ar    1  UNL1        0.0366
     13 C          62.6762   85.5122    8.2975 C.ar    1  UNL1       -0.0012
     14 O          64.0913   82.6280   10.6274 O.3     1  UNL1       -0.4714
     15 C          63.4871   81.6598   11.6009 C.3     1  UNL1        0.2525
     16 C          63.8596   81.7249   13.0525 C.3     1  UNL1        0.2525
     17 O          64.6706   82.8768   13.5676 O.3     1  UNL1       -0.4697
     18 C          64.0762   83.8254   14.5661 C.ar    1  UNL1        0.1596
     19 C          64.8722   85.0013   15.0496 C.ar    1  UNL1        0.0921
     20 CL         66.2625   85.2286   14.5346 Cl      1  UNL1       -0.0791
     21 C          64.2778   85.9499   16.0481 C.ar    1  UNL1        0.0103
     22 C          62.8874   85.7226   16.5631 C.ar    1  UNL1       -0.0200
     23 C          62.2931   86.6711   17.5615 C.3     1  UNL1        0.0311
     24 C          62.0915   84.5466   16.0796 C.ar    1  UNL1        0.0103
     25 C          62.6858   83.5981   15.0811 C.ar    1  UNL1        0.0921
     26 CL         61.8899   82.4222   14.5977 Cl      1  UNL1       -0.0791
     27 N          61.6386   89.3331   11.9027 N.am    1  UNL1       -0.2770
     28 C          62.1047   88.8568   10.5589 C.2     1  UNL1        0.2270
     29 O          63.5512   88.5249   10.3411 O.2     1  UNL1       -0.2748
     30 C          60.1921   89.6650   12.1205 C.3     1  UNL1        0.0758
     31 C          59.0298   90.5941   11.9313 C.3     1  UNL1        0.0215
     32 C          58.8491   89.3109   12.6869 C.3     1  UNL1        0.0215
     33 C          62.6191   89.4776   13.0287 C.3     1  UNL1        0.1201
     34 C          65.4368   92.0144   14.2013 C.ar    1  UNL1       -0.0194
     35 C          64.4110   90.9205   14.2358 C.ar    1  UNL1       -0.0067
     36 C          63.6449   90.5714   12.9943 C.ar    1  UNL1        0.0004
     37 C          63.9047   91.3161   11.7184 C.ar    1  UNL1        0.0343
     38 C          64.9306   92.4099   11.6839 C.ar    1  UNL1        0.1381
     39 C          65.6966   92.7590   12.9254 C.ar    1  UNL1        0.0326
     40 O          65.1904   93.1546   10.4080 O.3     1  UNL1       -0.4728
     41 C          66.0623   94.3751   10.4162 C.3     1  UNL1        0.2373
     42 C          67.1250   94.5446    9.3712 C.3     1  UNL1        0.1894
     43 O          68.4703   93.9082    9.5595 O.3     1  UNL1       -0.3471
     44 C          68.6539   92.4460    9.2801 C.3     1  UNL1        0.1743
     45 C          66.2029   92.3635   15.4428 C.3     1  UNL1        0.0290
     46 C          67.4213   93.2339   15.3524 C.3     1  UNL1        0.0367
     47 C          68.7874   92.6145   15.3574 C.3     1  UNL1        0.1426
     48 C          68.9131   91.6901   12.9326 C.3     1  UNL1        0.1741
     49 O          69.5377   92.4425   14.0700 O.3     1  UNL1       -0.3511
@<TRIPOS>BOND
     1    48    49    1
     2    49    47    1
     3    47    46    1
     4    46    45    1
     5    45    34    1
     6    34    35   ar
     7    35    36   ar
     8    36    33    1
     9    33    27    1
    10    27    28   am
    11    28    29    2
    12     1    28    1
    13     1     2    1
    14     2     3    1
    15     3     4    1
    16     4     5    1
    17     5     6    1
    18     6     8    1
    19     8     9   ar
    20     9    10   ar
    21    10    11   ar
    22    11    14    1
    23    14    15    1
    24    15    16    1
    25    16    17    1
    26    17    18    1
    27    18    19   ar
    28    19    20    1
    29    19    21   ar
    30    21    22   ar
    31    22    23    1
    32    22    24   ar
    33    24    25   ar
    34    25    26    1
    35    11    12   ar
    36    12    13   ar
    37    27    30    1
    38    30    31    1
    39    31    32    1
    40    36    37   ar
    41    37    38   ar
    42    38    40    1
    43    40    41    1
    44    41    42    1
    45    42    43    1
    46    43    44    1
    47    38    39   ar
    48    39    34   ar
    49     6     1    1
    50    13     8   ar
    51    32    30    1
    52    25    18   ar
    53     3     7    1
@<TRIPOS>MOLECULE
*****
 49 53 0 0 0
SMALL
GASTEIGER

@<TRIPOS>ATOM
      1 C          61.1020   88.7709    9.4534 C.3     1  UNL1        0.0964
      2 C          60.3148   89.9624    8.9943 C.3     1  UNL1        0.0780
      3 N          59.3564   89.8316    7.8479 N.3     1  UNL1       -0.2970
      4 C          59.1851   88.5094    7.1606 C.3     1  UNL1        0.0689
      5 C          59.9724   87.3179    7.6196 C.3     1  UNL1        0.0220
      6 C          60.9308   87.4487    8.7660 C.3     1  UNL1        0.0337
      7 H          59.6568   90.4970    7.1356 H       1  UNL1        0.1233
      8 C          61.7180   86.2573    9.2251 C.ar    1  UNL1       -0.0217
      9 C          62.6594   85.5709    8.2802 C.ar    1  UNL1       -0.0012
     10 C          63.4467   84.3795    8.7392 C.ar    1  UNL1        0.0366
     11 C          63.2925   83.8744   10.1432 C.ar    1  UNL1        0.1387
     12 C          62.3512   84.5606   11.0881 C.ar    1  UNL1        0.0366
     13 C          61.5639   85.7521   10.6290 C.ar    1  UNL1       -0.0012
     14 O          64.0797   82.6830   10.6022 O.3     1  UNL1       -0.4714
     15 C          63.4467   81.6701   11.5098 C.3     1  UNL1        0.2525
     16 C          63.7150   81.7135   12.9849 C.3     1  UNL1        0.2525
     17 O          64.5942   82.7863   13.5561 O.3     1  UNL1       -0.4697
     18 C          64.0362   83.7650   14.5465 C.ar    1  UNL1        0.1596
     19 C          64.8610   84.9373   14.9885 C.ar    1  UNL1        0.0921
     20 CL         66.2436   85.1310   14.4401 Cl      1  UNL1       -0.0791
     21 C          64.3030   85.9161   15.9789 C.ar    1  UNL1        0.0103
     22 C          62.9204   85.7224   16.5273 C.ar    1  UNL1       -0.0200
     23 C          62.3624   86.7011   17.5176 C.3     1  UNL1        0.0311
     24 C          62.0956   84.5500   16.0852 C.ar    1  UNL1        0.0103
     25 C          62.6536   83.5713   15.0949 C.ar    1  UNL1        0.0921
     26 CL         61.8288   82.3989   14.6528 Cl      1  UNL1       -0.0791
     27 N          61.5686   89.3628   11.9397 N.am    1  UNL1       -0.2770
     28 C          62.0605   88.9017   10.5998 C.2     1  UNL1        0.2270
     29 O          63.5108   88.5713   10.4062 O.2     1  UNL1       -0.2748
     30 C          60.1184   89.6931   12.1332 C.3     1  UNL1        0.0758
     31 C          58.9624   90.6295   11.9408 C.3     1  UNL1        0.0215
     32 C          58.7623   89.3289   12.6608 C.3     1  UNL1        0.0215
     33 C          62.5271   89.4935   13.0862 C.3     1  UNL1        0.1201
     34 C          64.9440   92.3580   11.7811 C.ar    1  UNL1       -0.0194
     35 C          63.9033   91.2778   11.7930 C.ar    1  UNL1       -0.0067
     36 C          63.5678   90.5737   13.0742 C.ar    1  UNL1        0.0004
     37 C          64.2729   90.9498   14.3437 C.ar    1  UNL1        0.0343
     38 C          65.3136   92.0300   14.3318 C.ar    1  UNL1        0.1381
     39 C          65.6491   92.7341   13.0505 C.ar    1  UNL1        0.0326
     40 O          66.0188   92.4061   15.6012 O.3     1  UNL1       -0.4728
     41 C          67.3227   93.1453   15.5440 C.3     1  UNL1        0.2373
     42 C          68.6056   92.3899   15.3612 C.3     1  UNL1        0.1894
     43 O          69.3312   92.4504   14.0497 O.3     1  UNL1       -0.3471
     44 C          68.8218   91.6706   12.8740 C.3     1  UNL1        0.1743
     45 C          65.2795   93.0622   10.4999 C.3     1  UNL1        0.0290
     46 C          66.0908   94.3236   10.5275 C.3     1  UNL1        0.0367
     47 C          67.2674   94.4788    9.6101 C.3     1  UNL1        0.1426
     48 C          68.7520   92.4214    9.0508 C.3     1  UNL1        0.1741
     49 O          68.5108   93.6726    9.8421 O.3     1  UNL1       -0.3511
@<TRIPOS>BOND
     1    48    49    1
     2    49    47    1
     3    47    46    1
     4    46    45    1
     5    45    34    1
     6    34    35   ar
     7    35    36   ar
     8    36    33    1
     9    33    27    1
    10    27    28   am
    11    28    29    2
    12     1    28    1
    13     1     2    1
    14     2     3    1
    15     3     4    1
    16     4     5    1
    17     5     6    1
    18     6     8    1
    19     8     9   ar
    20     9    10   ar
    21    10    11   ar
    22    11    14    1
    23    14    15    1
    24    15    16    1
    25    16    17    1
    26    17    18    1
    27    18    19   ar
    28    19    20    1
    29    19    21   ar
    30    21    22   ar
    31    22    23    1
    32    22    24   ar
    33    24    25   ar
    34    25    26    1
    35    11    12   ar
    36    12    13   ar
    37    27    30    1
    38    30    31    1
    39    31    32    1
    40    36    37   ar
    41    37    38   ar
    42    38    40    1
    43    40    41    1
    44    41    42    1
    45    42    43    1
    46    43    44    1
    47    38    39   ar
    48    39    34   ar
    49     6     1    1
    50    13     8   ar
    51    32    30    1
    52    25    18   ar
    53     3     7    1
@<TRIPOS>MOLECULE
*****
 49 53 0 0 0
SMALL
GASTEIGER

@<TRIPOS>ATOM
      1 C          60.6578   86.9276    9.1810 C.3     1  UNL1        0.0964
      2 C          59.7931   86.1191    8.2598 C.3     1  UNL1        0.0780
      3 N          58.7973   86.8045    7.3718 N.3     1  UNL1       -0.2970
      4 C          58.6662   88.2984    7.4050 C.3     1  UNL1        0.0689
      5 C          59.5309   89.1069    8.3262 C.3     1  UNL1        0.0220
      6 C          60.5267   88.4215    9.2142 C.3     1  UNL1        0.0337
      7 H          57.8811   86.4232    7.6076 H       1  UNL1        0.1233
      8 C          61.3914   89.2300   10.1354 C.ar    1  UNL1       -0.0217
      9 C          62.5952   89.9460    9.5984 C.ar    1  UNL1       -0.0012
     10 C          63.4599   90.7544   10.5195 C.ar    1  UNL1        0.0366
     11 C          63.1209   90.8470   11.9778 C.ar    1  UNL1        0.1387
     12 C          61.9172   90.1311   12.5149 C.ar    1  UNL1        0.0366
     13 C          61.0524   89.3226   11.5937 C.ar    1  UNL1       -0.0012
     14 O          63.9856   91.6555   12.8990 O.3     1  UNL1       -0.4714
     15 C          65.3719   92.0442   12.4778 C.3     1  UNL1        0.2525
     16 C          65.9622   93.3409   12.9467 C.3     1  UNL1        0.2525
     17 O          67.1117   93.9539   12.2032 O.3     1  UNL1       -0.4697
     18 C          66.8690   94.6793   10.9128 C.ar    1  UNL1        0.1596
     19 C          66.2931   96.0643   10.9279 C.ar    1  UNL1        0.0921
     20 CL         65.9600   96.7239   12.2332 Cl      1  UNL1       -0.0791
     21 C          66.0504   96.7897    9.6375 C.ar    1  UNL1        0.0103
     22 C          66.3835   96.1301    8.3322 C.ar    1  UNL1       -0.0200
     23 C          66.1407   96.8554    7.0419 C.3     1  UNL1        0.0311
     24 C          66.9593   94.7451    8.3172 C.ar    1  UNL1        0.0103
     25 C          67.2021   94.0197    9.6075 C.ar    1  UNL1        0.0921
     26 CL         67.7779   92.6347    9.5925 Cl      1  UNL1       -0.0791
     27 N          62.6224   85.2554    9.4879 N.am    1  UNL1       -0.2770
     28 C          61.6537   86.2422   10.0690 C.2     1  UNL1        0.2270
     29 O          61.6808   86.5437   11.5382 O.2     1  UNL1       -0.2748
     30 C          62.5953   84.9540    8.0188 C.3     1  UNL1        0.0758
     31 C          63.2189   85.0617    6.6589 C.3     1  UNL1        0.0215
     32 C          61.9247   84.3241    6.8341 C.3     1  UNL1        0.0215
     33 C          63.6182   84.5700   10.3759 C.3     1  UNL1        0.1201
     34 C          62.3699   82.5953   13.5841 C.ar    1  UNL1       -0.0194
     35 C          62.7241   82.9065   12.1601 C.ar    1  UNL1       -0.0067
     36 C          63.2640   84.2588   11.7998 C.ar    1  UNL1        0.0004
     37 C          63.4496   85.2999   12.8637 C.ar    1  UNL1        0.0343
     38 C          63.0954   84.9887   14.2876 C.ar    1  UNL1        0.1381
     39 C          62.5555   83.6364   14.6478 C.ar    1  UNL1        0.0326
     40 O          63.2811   86.0299   15.3514 O.3     1  UNL1       -0.4728
     41 C          62.8681   85.7407   16.7641 C.3     1  UNL1        0.2373
     42 C          62.4167   86.8580   17.6572 C.3     1  UNL1        0.1894
     43 O          63.1735   88.1530   17.6792 O.3     1  UNL1       -0.3471
     44 C          62.9306   89.1818   16.6150 C.3     1  UNL1        0.1743
     45 C          61.8300   81.2430   13.9443 C.3     1  UNL1        0.0290
     46 C          62.5868   80.0064   13.5592 C.3     1  UNL1        0.0367
     47 C          62.3197   79.3438   12.2403 C.3     1  UNL1        0.1426
     48 C          62.7514   79.1634    9.6847 C.3     1  UNL1        0.1741
     49 O          63.0256   79.8198   11.0053 O.3     1  UNL1       -0.3511
@<TRIPOS>BOND
     1    48    49    1
     2    49    47    1
     3    47    46    1
     4    46    45    1
     5    45    34    1
     6    34    35   ar
     7    35    36   ar
     8    36    33    1
     9    33    27    1
    10    27    28   am
    11    28    29    2
    12     1    28    1
    13     1     2    1
    14     2     3    1
    15     3     4    1
    16     4     5    1
    17     5     6    1
    18     6     8    1
    19     8     9   ar
    20     9    10   ar
    21    10    11   ar
    22    11    14    1
    23    14    15    1
    24    15    16    1
    25    16    17    1
    26    17    18    1
    27    18    19   ar
    28    19    20    1
    29    19    21   ar
    30    21    22   ar
    31    22    23    1
    32    22    24   ar
    33    24    25   ar
    34    25    26    1
    35    11    12   ar
    36    12    13   ar
    37    27    30    1
    38    30    31    1
    39    31    32    1
    40    36    37   ar
    41    37    38   ar
    42    38    40    1
    43    40    41    1
    44    41    42    1
    45    42    43    1
    46    43    44    1
    47    38    39   ar
    48    39    34   ar
    49     6     1    1
    50    13     8   ar
    51    32    30    1
    52    25    18   ar
    53     3     7    1
@<TRIPOS>MOLECULE
*****
 49 53 0 0 0
SMALL
GASTEIGER

@<TRIPOS>ATOM
      1 C          60.7611   87.1181    9.2035 C.3     1  UNL1        0.0964
      2 C          59.8699   86.3452    8.2770 C.3     1  UNL1        0.0780
      3 N          58.8620   87.0656    7.4313 N.3     1  UNL1       -0.2970
      4 C          58.7453   88.5588    7.5120 C.3     1  UNL1        0.0689
      5 C          59.6365   89.3318    8.4386 C.3     1  UNL1        0.0220
      6 C          60.6444   88.6114    9.2843 C.3     1  UNL1        0.0337
      7 H          57.9475   86.6851    7.6748 H       1  UNL1        0.1233
      8 C          61.5356   89.3843   10.2108 C.ar    1  UNL1       -0.0217
      9 C          61.2218   89.4448   11.6764 C.ar    1  UNL1       -0.0012
     10 C          62.1129   90.2177   12.6029 C.ar    1  UNL1        0.0366
     11 C          63.3179   90.9301   12.0639 C.ar    1  UNL1        0.1387
     12 C          63.6317   90.8696   10.5983 C.ar    1  UNL1        0.0366
     13 C          62.7405   90.0967    9.6717 C.ar    1  UNL1       -0.0012
     14 O          64.2091   91.7029   12.9904 O.3     1  UNL1       -0.4714
     15 C          65.3502   91.0158   13.6802 C.3     1  UNL1        0.2525
     16 C          66.6784   91.7027   13.7980 C.3     1  UNL1        0.2525
     17 O          67.4884   91.9851   12.5675 O.3     1  UNL1       -0.4697
     18 C          67.1167   93.1290   11.6711 C.ar    1  UNL1        0.1596
     19 C          67.3418   93.0263   10.1917 C.ar    1  UNL1        0.0921
     20 CL         67.9386   91.7798    9.6086 Cl      1  UNL1       -0.0791
     21 C          66.9701   94.1702    9.2953 C.ar    1  UNL1        0.0103
     22 C          66.3733   95.4167    9.8784 C.ar    1  UNL1       -0.0200
     23 C          66.0016   96.5606    8.9821 C.3     1  UNL1        0.0311
     24 C          66.1482   95.5194   11.3579 C.ar    1  UNL1        0.0103
     25 C          66.5199   94.3755   12.2542 C.ar    1  UNL1        0.0921
     26 CL         66.2948   94.4782   13.7337 Cl      1  UNL1       -0.0791
     27 N          62.6557   85.3554    9.4349 N.am    1  UNL1       -0.2770
     28 C          61.7690   86.3977   10.0492 C.2     1  UNL1        0.2270
     29 O          61.8902   86.7197   11.5092 O.2     1  UNL1       -0.2748
     30 C          62.5344   85.0335    7.9749 C.3     1  UNL1        0.0758
     31 C          61.6925   84.6446    6.7960 C.3     1  UNL1        0.0215
     32 C          63.1663   84.8647    6.6250 C.3     1  UNL1        0.0215
     33 C          63.6636   84.6351   10.2806 C.3     1  UNL1        0.1201
     34 C          62.5424   81.8849   12.9130 C.ar    1  UNL1       -0.0194
     35 C          62.9648   82.5233   11.6230 C.ar    1  UNL1       -0.0067
     36 C          63.2411   83.9967   11.5705 C.ar    1  UNL1        0.0004
     37 C          63.0950   84.8317   12.8081 C.ar    1  UNL1        0.0343
     38 C          62.6725   84.1932   14.0980 C.ar    1  UNL1        0.1381
     39 C          62.3962   82.7198   14.1504 C.ar    1  UNL1        0.0326
     40 O          62.5264   85.0282   15.3356 O.3     1  UNL1       -0.4728
     41 C          63.7117   85.7617   15.8898 C.3     1  UNL1        0.2373
     42 C          63.5233   87.0839   16.5724 C.3     1  UNL1        0.1894
     43 O          63.5525   88.3522   15.7720 O.3     1  UNL1       -0.3471
     44 C          63.1649   89.6522   16.4121 C.3     1  UNL1        0.1743
     45 C          62.2660   80.4115   12.9654 C.3     1  UNL1        0.0290
     46 C          61.2748   79.8689   13.9519 C.3     1  UNL1        0.0367
     47 C          59.9920   80.6032   14.2072 C.3     1  UNL1        0.1426
     48 C          58.7695   78.3445   14.5988 C.3     1  UNL1        0.1741
     49 O          58.7582   79.8444   14.5970 O.3     1  UNL1       -0.3511
@<TRIPOS>BOND
     1    48    49    1
     2    49    47    1
     3    47    46    1
     4    46    45    1
     5    45    34    1
     6    34    35   ar
     7    35    36   ar
     8    36    33    1
     9    33    27    1
    10    27    28   am
    11    28    29    2
    12     1    28    1
    13     1     2    1
    14     2     3    1
    15     3     4    1
    16     4     5    1
    17     5     6    1
    18     6     8    1
    19     8     9   ar
    20     9    10   ar
    21    10    11   ar
    22    11    14    1
    23    14    15    1
    24    15    16    1
    25    16    17    1
    26    17    18    1
    27    18    19   ar
    28    19    20    1
    29    19    21   ar
    30    21    22   ar
    31    22    23    1
    32    22    24   ar
    33    24    25   ar
    34    25    26    1
    35    11    12   ar
    36    12    13   ar
    37    27    30    1
    38    30    31    1
    39    31    32    1
    40    36    37   ar
    41    37    38   ar
    42    38    40    1
    43    40    41    1
    44    41    42    1
    45    42    43    1
    46    43    44    1
    47    38    39   ar
    48    39    34   ar
    49     6     1    1
    50    13     8   ar
    51    32    30    1
    52    25    18   ar
    53     3     7    1
@<TRIPOS>MOLECULE
*****
 49 53 0 0 0
SMALL
GASTEIGER

@<TRIPOS>ATOM
      1 C          65.6572   92.3740   13.6036 C.3     1  UNL1        0.0964
      2 C          66.5663   93.5121   13.2456 C.3     1  UNL1        0.0780
      3 N          67.7545   93.8223   14.1070 N.3     1  UNL1       -0.2970
      4 C          68.0336   92.9944   15.3262 C.3     1  UNL1        0.0689
      5 C          67.1245   91.8563   15.6842 C.3     1  UNL1        0.0220
      6 C          65.9362   91.5461   14.8229 C.3     1  UNL1        0.0337
      7 H          67.6450   94.7856   14.4239 H       1  UNL1        0.1233
      8 C          65.0271   90.4080   15.1808 C.ar    1  UNL1       -0.0217
      9 C          65.2010   89.0726   14.5199 C.ar    1  UNL1       -0.0012
     10 C          64.2919   87.9346   14.8778 C.ar    1  UNL1        0.0366
     11 C          63.2088   88.1317   15.8967 C.ar    1  UNL1        0.1387
     12 C          63.0348   89.4669   16.5576 C.ar    1  UNL1        0.0366
     13 C          63.9440   90.6051   16.1997 C.ar    1  UNL1       -0.0012
     14 O          62.2996   86.9936   16.2546 O.3     1  UNL1       -0.4714
     15 C          62.8679   85.6258   16.4921 C.3     1  UNL1        0.2525
     16 C          62.1629   84.4167   15.9528 C.3     1  UNL1        0.2525
     17 O          62.9337   83.1600   15.6767 O.3     1  UNL1       -0.4697
     18 C          63.1866   82.7307   14.2618 C.ar    1  UNL1        0.1596
     19 C          64.3901   83.2417   13.5267 C.ar    1  UNL1        0.0921
     20 CL         65.3407   84.1821   14.2064 Cl      1  UNL1       -0.0791
     21 C          64.6429   82.8124   12.1118 C.ar    1  UNL1        0.0103
     22 C          63.6923   81.8721   11.4321 C.ar    1  UNL1       -0.0200
     23 C          63.9451   81.4427   10.0173 C.3     1  UNL1        0.0311
     24 C          62.4888   81.3610   12.1673 C.ar    1  UNL1        0.0103
     25 C          62.2360   81.7903   13.5821 C.ar    1  UNL1        0.0921
     26 CL         61.0325   81.2792   14.3173 Cl      1  UNL1       -0.0791
     27 N          64.5874   92.1309   11.2485 N.am    1  UNL1       -0.2770
     28 C          64.4689   92.0638   12.7422 C.2     1  UNL1        0.2270
     29 O          63.1621   91.6865   13.3748 O.2     1  UNL1       -0.2748
     30 C          65.8942   92.5083   10.6160 C.3     1  UNL1        0.0758
     31 C          66.7525   93.5152    9.9094 C.3     1  UNL1        0.0215
     32 C          67.2991   92.1549   10.2272 C.3     1  UNL1        0.0215
     33 C          63.3992   91.8207   10.3871 C.3     1  UNL1        0.1201
     34 C          60.7738   88.8943    9.8458 C.ar    1  UNL1       -0.0194
     35 C          61.4599   90.2229    9.7269 C.ar    1  UNL1       -0.0067
     36 C          62.7131   90.4922   10.5060 C.ar    1  UNL1        0.0004
     37 C          63.2802   89.4328   11.4039 C.ar    1  UNL1        0.0343
     38 C          62.5942   88.1043   11.5227 C.ar    1  UNL1        0.1381
     39 C          61.3409   87.8350   10.7437 C.ar    1  UNL1        0.0326
     40 O          63.1613   87.0449   12.4206 O.3     1  UNL1       -0.4728
     41 C          62.7332   85.6164   12.2586 C.3     1  UNL1        0.2373
     42 C          62.2450   85.1261   10.9278 C.3     1  UNL1        0.1894
     43 O          63.2079   84.9636    9.7891 O.3     1  UNL1       -0.3471
     44 C          62.7900   85.3287    8.3956 C.3     1  UNL1        0.1743
     45 C          59.5205   88.6250    9.0668 C.3     1  UNL1        0.0290
     46 C          59.5947   88.3765    7.5893 C.3     1  UNL1        0.0367
     47 C          58.8923   89.2989    6.6375 C.3     1  UNL1        0.1426
     48 C          59.0338   91.3890    5.1008 C.3     1  UNL1        0.1741
     49 O          59.6887   90.2022    5.7432 O.3     1  UNL1       -0.3511
@<TRIPOS>BOND
     1    48    49    1
     2    49    47    1
     3    47    46    1
     4    46    45    1
     5    45    34    1
     6    34    35   ar
     7    35    36   ar
     8    36    33    1
     9    33    27    1
    10    27    28   am
    11    28    29    2
    12     1    28    1
    13     1     2    1
    14     2     3    1
    15     3     4    1
    16     4     5    1
    17     5     6    1
    18     6     8    1
    19     8     9   ar
    20     9    10   ar
    21    10    11   ar
    22    11    14    1
    23    14    15    1
    24    15    16    1
    25    16    17    1
    26    17    18    1
    27    18    19   ar
    28    19    20    1
    29    19    21   ar
    30    21    22   ar
    31    22    23    1
    32    22    24   ar
    33    24    25   ar
    34    25    26    1
    35    11    12   ar
    36    12    13   ar
    37    27    30    1
    38    30    31    1
    39    31    32    1
    40    36    37   ar
    41    37    38   ar
    42    38    40    1
    43    40    41    1
    44    41    42    1
    45    42    43    1
    46    43    44    1
    47    38    39   ar
    48    39    34   ar
    49     6     1    1
    50    13     8   ar
    51    32    30    1
    52    25    18   ar
    53     3     7    1
@<TRIPOS>MOLECULE
*****
 49 53 0 0 0
SMALL
GASTEIGER

@<TRIPOS>ATOM
      1 C          60.5849   86.9003    9.1212 C.3     1  UNL1        0.0964
      2 C          59.6665   86.1220    8.2263 C.3     1  UNL1        0.0780
      3 N          58.6617   86.8406    7.3754 N.3     1  UNL1       -0.2970
      4 C          58.5753   88.3375    7.4194 C.3     1  UNL1        0.0689
      5 C          59.4937   89.1158    8.3143 C.3     1  UNL1        0.0220
      6 C          60.4985   88.3972    9.1652 C.3     1  UNL1        0.0337
      7 H          57.7432   86.4848    7.6404 H       1  UNL1        0.1233
      8 C          61.4169   89.1754   10.0601 C.ar    1  UNL1       -0.0217
      9 C          61.1024   89.3133   11.5203 C.ar    1  UNL1       -0.0012
     10 C          62.0208   90.0915   12.4151 C.ar    1  UNL1        0.0366
     11 C          63.2538   90.7319   11.8499 C.ar    1  UNL1        0.1387
     12 C          63.5684   90.5941   10.3897 C.ar    1  UNL1        0.0366
     13 C          62.6500   89.8159    9.4948 C.ar    1  UNL1       -0.0012
     14 O          64.1722   91.5102   12.7447 O.3     1  UNL1       -0.4714
     15 C          65.0238   92.6058   12.1751 C.3     1  UNL1        0.2525
     16 C          66.4796   92.6844   12.5275 C.3     1  UNL1        0.2525
     17 O          67.2697   93.9118   12.1823 O.3     1  UNL1       -0.4697
     18 C          67.0062   94.6361   10.8954 C.ar    1  UNL1        0.1596
     19 C          66.3925   96.0046   10.9171 C.ar    1  UNL1        0.0921
     20 CL         66.0423   96.6489   12.2256 Cl      1  UNL1       -0.0791
     21 C          66.1290   96.7289    9.6302 C.ar    1  UNL1        0.0103
     22 C          66.4792   96.0846    8.3217 C.ar    1  UNL1       -0.0200
     23 C          66.2157   96.8088    7.0348 C.3     1  UNL1        0.0311
     24 C          67.0929   94.7160    8.3001 C.ar    1  UNL1        0.0103
     25 C          67.3564   93.9918    9.5869 C.ar    1  UNL1        0.0921
     26 CL         67.9701   92.6232    9.5653 Cl      1  UNL1       -0.0791
     27 N          62.5525   85.2183    9.3437 N.am    1  UNL1       -0.2770
     28 C          61.5897   86.1817    9.9721 C.2     1  UNL1        0.2270
     29 O          61.6317   86.4265   11.4514 O.2     1  UNL1       -0.2748
     30 C          62.5104   84.9735    7.8644 C.3     1  UNL1        0.0758
     31 C          61.7253   84.7268    6.6103 C.3     1  UNL1        0.0215
     32 C          63.2227   84.7962    6.5563 C.3     1  UNL1        0.0215
     33 C          63.5573   84.4997   10.1946 C.3     1  UNL1        0.1201
     34 C          63.7927   85.4152   14.0490 C.ar    1  UNL1       -0.0194
     35 C          63.9801   85.4823   12.5622 C.ar    1  UNL1       -0.0067
     36 C          63.3700   84.4326   11.6813 C.ar    1  UNL1        0.0004
     37 C          62.5725   83.3159   12.2872 C.ar    1  UNL1        0.0343
     38 C          62.3852   83.2489   13.7739 C.ar    1  UNL1        0.1381
     39 C          62.9953   84.2985   14.6548 C.ar    1  UNL1        0.0326
     40 O          61.5877   82.1321   14.3798 O.3     1  UNL1       -0.4728
     41 C          62.0847   80.7198   14.2876 C.3     1  UNL1        0.2373
     42 C          62.0213   79.9863   12.9808 C.3     1  UNL1        0.1894
     43 O          63.1236   80.1471   11.9762 O.3     1  UNL1       -0.3471
     44 C          62.8275   80.0209   10.5112 C.3     1  UNL1        0.1743
     45 C          64.4029   86.4648   14.9299 C.3     1  UNL1        0.0290
     46 C          64.2644   87.9155   14.5743 C.3     1  UNL1        0.0367
     47 C          63.8061   88.9007   15.6084 C.3     1  UNL1        0.1426
     48 C          62.7938   87.5558   17.5874 C.3     1  UNL1        0.1741
     49 O          62.6411   88.5712   16.4940 O.3     1  UNL1       -0.3511
@<TRIPOS>BOND
     1    48    49    1
     2    49    47    1
     3    47    46    1
     4    46    45    1
     5    45    34    1
     6    34    35   ar
     7    35    36   ar
     8    36    33    1
     9    33    27    1
    10    27    28   am
    11    28    29    2
    12     1    28    1
    13     1     2    1
    14     2     3    1
    15     3     4    1
    16     4     5    1
    17     5     6    1
    18     6     8    1
    19     8     9   ar
    20     9    10   ar
    21    10    11   ar
    22    11    14    1
    23    14    15    1
    24    15    16    1
    25    16    17    1
    26    17    18    1
    27    18    19   ar
    28    19    20    1
    29    19    21   ar
    30    21    22   ar
    31    22    23    1
    32    22    24   ar
    33    24    25   ar
    34    25    26    1
    35    11    12   ar
    36    12    13   ar
    37    27    30    1
    38    30    31    1
    39    31    32    1
    40    36    37   ar
    41    37    38   ar
    42    38    40    1
    43    40    41    1
    44    41    42    1
    45    42    43    1
    46    43    44    1
    47    38    39   ar
    48    39    34   ar
    49     6     1    1
    50    13     8   ar
    51    32    30    1
    52    25    18   ar
    53     3     7    1
@<TRIPOS>MOLECULE
*****
 49 53 0 0 0
SMALL
GASTEIGER

@<TRIPOS>ATOM
      1 C          63.8645   90.9357   13.7083 C.3     1  UNL1        0.0964
      2 C          64.3439   92.2389   13.1414 C.3     1  UNL1        0.0780
      3 N          65.6954   92.7691   13.5186 N.3     1  UNL1       -0.2970
      4 C          66.5675   91.9960   14.4629 C.3     1  UNL1        0.0689
      5 C          66.0881   90.6926   15.0299 C.3     1  UNL1        0.0220
      6 C          64.7366   90.1624   14.6526 C.3     1  UNL1        0.0337
      7 H          65.5450   93.6856   13.9403 H       1  UNL1        0.1233
      8 C          64.2571   88.8591   15.2196 C.ar    1  UNL1       -0.0217
      9 C          64.6055   87.5703   14.5358 C.ar    1  UNL1       -0.0012
     10 C          64.1260   86.2670   15.1027 C.ar    1  UNL1        0.0366
     11 C          63.2983   86.2524   16.3536 C.ar    1  UNL1        0.1387
     12 C          62.9499   87.5412   17.0374 C.ar    1  UNL1        0.0366
     13 C          63.4294   88.8446   16.4705 C.ar    1  UNL1       -0.0012
     14 O          62.8188   84.9491   16.9205 O.3     1  UNL1       -0.4714
     15 C          62.0523   83.9920   16.0565 C.3     1  UNL1        0.2525
     16 C          62.4381   83.8052   14.6191 C.3     1  UNL1        0.2525
     17 O          63.4937   82.8056   14.2498 O.3     1  UNL1       -0.4697
     18 C          63.3242   81.9525   13.0277 C.ar    1  UNL1        0.1596
     19 C          62.6976   80.5945   13.1420 C.ar    1  UNL1        0.0921
     20 CL         62.2405   80.0895   14.4785 Cl      1  UNL1       -0.0791
     21 C          62.5280   79.7414   11.9199 C.ar    1  UNL1        0.0103
     22 C          62.9850   80.2464   10.5834 C.ar    1  UNL1       -0.0200
     23 C          62.8155   79.3934    9.3613 C.3     1  UNL1        0.0311
     24 C          63.6116   81.6045   10.4691 C.ar    1  UNL1        0.0103
     25 C          63.7812   82.4575   11.6912 C.ar    1  UNL1        0.0921
     26 CL         64.4078   83.8157   11.5769 Cl      1  UNL1       -0.0791
     27 N          62.0550   90.4665   11.9040 N.am    1  UNL1       -0.2770
     28 C          62.5130   90.4055   13.3310 C.2     1  UNL1        0.2270
     29 O          61.6194   89.8143   14.3809 O.2     1  UNL1       -0.2748
     30 C          62.9485   91.0577   10.8542 C.3     1  UNL1        0.0758
     31 C          63.1389   91.6196    9.4766 C.3     1  UNL1        0.0215
     32 C          64.3058   91.5198   10.4137 C.3     1  UNL1        0.0215
     33 C          60.7035   89.9364   11.5267 C.3     1  UNL1        0.1201
     34 C          61.0884   86.6776    9.2945 C.ar    1  UNL1       -0.0194
     35 C          61.2254   87.6340   10.4421 C.ar    1  UNL1       -0.0067
     36 C          60.5665   88.9801   10.3793 C.ar    1  UNL1        0.0004
     37 C          59.7707   89.3698    9.1689 C.ar    1  UNL1        0.0343
     38 C          59.6337   88.4135    8.0215 C.ar    1  UNL1        0.1381
     39 C          60.2926   87.0674    8.0843 C.ar    1  UNL1        0.0326
     40 O          58.8379   88.8033    6.8112 O.3     1  UNL1       -0.4728
     41 C          59.2047   90.0345    6.0370 C.3     1  UNL1        0.2373
     42 C          58.1289   90.9365    5.5087 C.3     1  UNL1        0.1894
     43 O          58.4681   92.0039    4.5108 O.3     1  UNL1       -0.3471
     44 C          59.9023   92.2929    4.1800 C.3     1  UNL1        0.1743
     45 C          61.7473   85.3316    9.3573 C.3     1  UNL1        0.0290
     46 C          63.0118   85.0790    8.5910 C.3     1  UNL1        0.0367
     47 C          62.9759   84.9862    7.0943 C.3     1  UNL1        0.1426
     48 C          61.7406   83.9966    5.0340 C.3     1  UNL1        0.1741
     49 O          61.6988   84.6244    6.3957 O.3     1  UNL1       -0.3511
@<TRIPOS>BOND
     1    48    49    1
     2    49    47    1
     3    47    46    1
     4    46    45    1
     5    45    34    1
     6    34    35   ar
     7    35    36   ar
     8    36    33    1
     9    33    27    1
    10    27    28   am
    11    28    29    2
    12     1    28    1
    13     1     2    1
    14     2     3    1
    15     3     4    1
    16     4     5    1
    17     5     6    1
    18     6     8    1
    19     8     9   ar
    20     9    10   ar
    21    10    11   ar
    22    11    14    1
    23    14    15    1
    24    15    16    1
    25    16    17    1
    26    17    18    1
    27    18    19   ar
    28    19    20    1
    29    19    21   ar
    30    21    22   ar
    31    22    23    1
    32    22    24   ar
    33    24    25   ar
    34    25    26    1
    35    11    12   ar
    36    12    13   ar
    37    27    30    1
    38    30    31    1
    39    31    32    1
    40    36    37   ar
    41    37    38   ar
    42    38    40    1
    43    40    41    1
    44    41    42    1
    45    42    43    1
    46    43    44    1
    47    38    39   ar
    48    39    34   ar
    49     6     1    1
    50    13     8   ar
    51    32    30    1
    52    25    18   ar
    53     3     7    1
@<TRIPOS>MOLECULE
*****
 49 53 0 0 0
SMALL
GASTEIGER

@<TRIPOS>ATOM
      1 C          63.9199   90.9307   13.7642 C.3     1  UNL1        0.0964
      2 C          64.4073   92.2396   13.2172 C.3     1  UNL1        0.0780
      3 N          65.7673   92.7493   13.5920 N.3     1  UNL1       -0.2970
      4 C          66.6400   91.9501   14.5137 C.3     1  UNL1        0.0689
      5 C          66.1527   90.6412   15.0608 C.3     1  UNL1        0.0220
      6 C          64.7926   90.1314   14.6860 C.3     1  UNL1        0.0337
      7 H          65.6298   93.6592   14.0319 H       1  UNL1        0.1233
      8 C          64.3053   88.8226   15.2330 C.ar    1  UNL1       -0.0217
      9 C          64.6685   87.5402   14.5448 C.ar    1  UNL1       -0.0012
     10 C          64.1812   86.2313   15.0917 C.ar    1  UNL1        0.0366
     11 C          63.3305   86.2047   16.3269 C.ar    1  UNL1        0.1387
     12 C          62.9672   87.4870   17.0151 C.ar    1  UNL1        0.0366
     13 C          63.4546   88.7960   16.4682 C.ar    1  UNL1       -0.0012
     14 O          62.8432   84.8958   16.8739 O.3     1  UNL1       -0.4714
     15 C          62.1685   83.9088   15.9679 C.3     1  UNL1        0.2525
     16 C          62.4576   83.9225   14.4961 C.3     1  UNL1        0.2525
     17 O          63.6183   83.1433   13.9525 O.3     1  UNL1       -0.4697
     18 C          63.4051   82.1544   12.8449 C.ar    1  UNL1        0.1596
     19 C          63.9586   82.4283   11.4780 C.ar    1  UNL1        0.0921
     20 CL         64.7254   83.6912   11.2186 Cl      1  UNL1       -0.0791
     21 C          63.7454   81.4394   10.3704 C.ar    1  UNL1        0.0103
     22 C          62.9786   80.1766   10.6298 C.ar    1  UNL1       -0.0200
     23 C          62.7653   79.1877    9.5224 C.3     1  UNL1        0.0311
     24 C          62.4251   79.9027   11.9969 C.ar    1  UNL1        0.0103
     25 C          62.6383   80.8915   13.1044 C.ar    1  UNL1        0.0921
     26 CL         62.0848   80.6176   14.4714 Cl      1  UNL1       -0.0791
     27 N          62.1087   90.4689   11.9597 N.am    1  UNL1       -0.2770
     28 C          62.5599   90.4210   13.3894 C.2     1  UNL1        0.2270
     29 O          61.6510   89.8634   14.4444 O.2     1  UNL1       -0.2748
     30 C          63.0176   91.0265   10.9047 C.3     1  UNL1        0.0758
     31 C          64.3999   91.2507   10.3672 C.3     1  UNL1        0.0215
     32 C          63.2097   91.7681    9.6151 C.3     1  UNL1        0.0215
     33 C          60.7487   89.9592   11.5849 C.3     1  UNL1        0.1201
     34 C          59.7284   88.5756    8.0079 C.ar    1  UNL1       -0.0194
     35 C          59.8863   89.5019    9.1772 C.ar    1  UNL1       -0.0067
     36 C          60.5908   89.0330   10.4156 C.ar    1  UNL1        0.0004
     37 C          61.1376   87.6378   10.4847 C.ar    1  UNL1        0.0343
     38 C          60.9797   86.7117    9.3154 C.ar    1  UNL1        0.1381
     39 C          60.2751   87.1806    8.0770 C.ar    1  UNL1        0.0326
     40 O          61.5265   85.3165    9.3845 O.3     1  UNL1       -0.4728
     41 C          62.8348   84.9903    8.7274 C.3     1  UNL1        0.2373
     42 C          62.9322   84.9465    7.2312 C.3     1  UNL1        0.1894
     43 O          61.7485   84.5196    6.4147 O.3     1  UNL1       -0.3471
     44 C          61.9195   84.1894    4.9616 C.3     1  UNL1        0.1743
     45 C          59.0238   89.0445    6.7694 C.3     1  UNL1        0.0290
     46 C          59.4751   90.2972    6.0786 C.3     1  UNL1        0.0367
     47 C          58.5182   91.0631    5.2138 C.3     1  UNL1        0.1426
     48 C          59.8081   92.6348    3.5965 C.3     1  UNL1        0.1741
     49 O          58.8683   92.4460    4.7502 O.3     1  UNL1       -0.3511
@<TRIPOS>BOND
     1    48    49    1
     2    49    47    1
     3    47    46    1
     4    46    45    1
     5    45    34    1
     6    34    35   ar
     7    35    36   ar
     8    36    33    1
     9    33    27    1
    10    27    28   am
    11    28    29    2
    12     1    28    1
    13     1     2    1
    14     2     3    1
    15     3     4    1
    16     4     5    1
    17     5     6    1
    18     6     8    1
    19     8     9   ar
    20     9    10   ar
    21    10    11   ar
    22    11    14    1
    23    14    15    1
    24    15    16    1
    25    16    17    1
    26    17    18    1
    27    18    19   ar
    28    19    20    1
    29    19    21   ar
    30    21    22   ar
    31    22    23    1
    32    22    24   ar
    33    24    25   ar
    34    25    26    1
    35    11    12   ar
    36    12    13   ar
    37    27    30    1
    38    30    31    1
    39    31    32    1
    40    36    37   ar
    41    37    38   ar
    42    38    40    1
    43    40    41    1
    44    41    42    1
    45    42    43    1
    46    43    44    1
    47    38    39   ar
    48    39    34   ar
    49     6     1    1
    50    13     8   ar
    51    32    30    1
    52    25    18   ar
    53     3     7    1
@<TRIPOS>MOLECULE
*****
 49 53 0 0 0
SMALL
GASTEIGER

@<TRIPOS>ATOM
      1 C          60.8852   86.9422    8.8541 C.3     1  UNL1        0.0964
      2 C          60.1050   86.1392    7.8559 C.3     1  UNL1        0.0780
      3 N          59.0112   86.7889    7.0613 N.3     1  UNL1       -0.2970
      4 C          58.6976   88.2416    7.2648 C.3     1  UNL1        0.0689
      5 C          59.4779   89.0446    8.2630 C.3     1  UNL1        0.0220
      6 C          60.5717   88.3949    9.0577 C.3     1  UNL1        0.0337
      7 H          58.1549   86.2720    7.2614 H       1  UNL1        0.1233
      8 C          61.3519   89.1979   10.0559 C.ar    1  UNL1       -0.0217
      9 C          60.8707   89.3055   11.4725 C.ar    1  UNL1       -0.0012
     10 C          61.6509   90.1085   12.4707 C.ar    1  UNL1        0.0366
     11 C          62.9125   90.8038   12.0523 C.ar    1  UNL1        0.1387
     12 C          63.3937   90.6962   10.6358 C.ar    1  UNL1        0.0366
     13 C          62.6135   89.8932    9.6375 C.ar    1  UNL1       -0.0012
     14 O          63.6927   91.6067   13.0505 O.3     1  UNL1       -0.4714
     15 C          64.7837   90.9560   13.8482 C.3     1  UNL1        0.2525
     16 C          65.8988   91.7865   14.4110 C.3     1  UNL1        0.2525
     17 O          66.4148   92.9679   13.6441 O.3     1  UNL1       -0.4697
     18 C          67.0267   92.7729   12.2885 C.ar    1  UNL1        0.1596
     19 C          68.2801   91.9622   12.1410 C.ar    1  UNL1        0.0921
     20 CL         68.9215   91.3464   13.3490 Cl      1  UNL1       -0.0791
     21 C          68.8920   91.7672   10.7854 C.ar    1  UNL1        0.0103
     22 C          68.2506   92.3830    9.5773 C.ar    1  UNL1       -0.0200
     23 C          68.8625   92.1881    8.2218 C.3     1  UNL1        0.0311
     24 C          66.9972   93.1938    9.7249 C.ar    1  UNL1        0.0103
     25 C          66.3853   93.3887   11.0804 C.ar    1  UNL1        0.0921
     26 CL         65.1319   94.1995   11.2280 Cl      1  UNL1       -0.0791
     27 N          62.8321   85.2301    9.0216 N.am    1  UNL1       -0.2770
     28 C          61.9790   86.2925    9.6488 C.2     1  UNL1        0.2270
     29 O          62.2196   86.7053   11.0707 O.2     1  UNL1       -0.2748
     30 C          62.5915   84.8174    7.5998 C.3     1  UNL1        0.0758
     31 C          61.7582   84.1020    6.5780 C.3     1  UNL1        0.0215
     32 C          63.0079   84.8178    6.1588 C.3     1  UNL1        0.0215
     33 C          63.9259   84.5804    9.8163 C.3     1  UNL1        0.1201
     34 C          63.4332   84.0721   13.7213 C.ar    1  UNL1       -0.0194
     35 C          63.7455   84.7189   12.4044 C.ar    1  UNL1       -0.0067
     36 C          63.6136   83.9337   11.1331 C.ar    1  UNL1        0.0004
     37 C          63.1693   82.5017   11.1788 C.ar    1  UNL1        0.0343
     38 C          62.8570   81.8549   12.4957 C.ar    1  UNL1        0.1381
     39 C          62.9889   82.6401   13.7669 C.ar    1  UNL1        0.0326
     40 O          62.4127   80.4229   12.5413 O.3     1  UNL1       -0.4728
     41 C          61.5485   79.9414   13.6688 C.3     1  UNL1        0.2373
     42 C          60.4734   80.8293   14.2217 C.3     1  UNL1        0.1894
     43 O          59.0815   80.2996   14.4008 O.3     1  UNL1       -0.3471
     44 C          58.8541   78.8247   14.5525 C.3     1  UNL1        0.1743
     45 C          63.5651   84.8573   14.9925 C.3     1  UNL1        0.0290
     46 C          64.6023   85.9352   15.1040 C.3     1  UNL1        0.0367
     47 C          64.2647   87.3440   14.7148 C.3     1  UNL1        0.1426
     48 C          63.0562   87.6888   16.9887 C.3     1  UNL1        0.1741
     49 O          63.5495   88.2387   15.6832 O.3     1  UNL1       -0.3511
@<TRIPOS>BOND
     1    48    49    1
     2    49    47    1
     3    47    46    1
     4    46    45    1
     5    45    34    1
     6    34    35   ar
     7    35    36   ar
     8    36    33    1
     9    33    27    1
    10    27    28   am
    11    28    29    2
    12     1    28    1
    13     1     2    1
    14     2     3    1
    15     3     4    1
    16     4     5    1
    17     5     6    1
    18     6     8    1
    19     8     9   ar
    20     9    10   ar
    21    10    11   ar
    22    11    14    1
    23    14    15    1
    24    15    16    1
    25    16    17    1
    26    17    18    1
    27    18    19   ar
    28    19    20    1
    29    19    21   ar
    30    21    22   ar
    31    22    23    1
    32    22    24   ar
    33    24    25   ar
    34    25    26    1
    35    11    12   ar
    36    12    13   ar
    37    27    30    1
    38    30    31    1
    39    31    32    1
    40    36    37   ar
    41    37    38   ar
    42    38    40    1
    43    40    41    1
    44    41    42    1
    45    42    43    1
    46    43    44    1
    47    38    39   ar
    48    39    34   ar
    49     6     1    1
    50    13     8   ar
    51    32    30    1
    52    25    18   ar
    53     3     7    1
