@<TRIPOS>MOLECULE
*****
 43 46 0 0 0
SMALL
GASTEIGER

@<TRIPOS>ATOM
      1 N          64.6128   91.2543   12.8327 N.ar    1  UNL1       -0.2470
      2 C          63.6314   90.8716   11.7649 C.ar    1  UNL1        0.2657
      3 O          63.2134   91.8784   10.7346 O.2     1  UNL1       -0.2668
      4 C          63.0679   89.4820   11.7274 C.ar    1  UNL1        0.0736
      5 C          63.4858   88.4751   12.7577 C.ar    1  UNL1        0.0847
      6 N          64.4672   88.8579   13.8256 N.ar    1  UNL1       -0.2755
      7 C          65.0307   90.2475   13.8631 C.ar    1  UNL1        0.3341
      8 O          66.0122   90.6303   14.9309 O.2     1  UNL1       -0.2462
      9 C          62.0864   89.0991   10.6596 C.ar    1  UNL1        0.0060
     10 C          60.9657   90.0300   10.3024 C.ar    1  UNL1       -0.0000
     11 C          59.9843   89.6472    9.2346 C.ar    1  UNL1       -0.0018
     12 C          60.1235   88.3336    8.5239 C.ar    1  UNL1        0.0073
     13 C          61.2442   87.4027    8.8811 C.ar    1  UNL1       -0.0018
     14 C          62.2257   87.7856    9.9489 C.ar    1  UNL1       -0.0000
     15 C          59.1421   87.9508    7.4561 C.3     1  UNL1        0.1691
     16 O          58.3591   89.0122    6.7417 O.3     1  UNL1       -0.3430
     17 C          59.0732   90.0576    5.9373 C.3     1  UNL1        0.1839
     18 C          58.3000   91.1797    5.3105 C.2     1  UNL1        0.0801
     19 O          56.8019   91.1221    5.2605 O.co2   1  UNL1       -0.5466
     20 O          59.0248   92.3595    4.7335 O.co2   1  UNL1       -0.5466
     21 C          65.1763   92.6440   12.8703 C.3     1  UNL1        0.1334
     22 N          67.6351   92.7992   13.6950 N.3     1  UNL1       -0.3172
     23 C          66.6308   92.8715   12.5831 C.3     1  UNL1        0.0968
     24 H          67.1576   92.5877   14.5711 H       1  UNL1        0.1192
     25 H          68.1160   93.6950   13.7775 H       1  UNL1        0.1192
     26 C          67.0812   93.1712   11.1840 C.ar    1  UNL1       -0.0063
     27 C          66.6695   94.4526   10.5218 C.ar    1  UNL1       -0.0029
     28 C          67.1199   94.7522    9.1228 C.ar    1  UNL1       -0.0003
     29 C          67.9819   93.7705    8.3859 C.ar    1  UNL1       -0.0000
     30 C          68.3937   92.4891    9.0481 C.ar    1  UNL1       -0.0003
     31 C          67.9433   92.1894   10.4471 C.ar    1  UNL1       -0.0029
     32 C          64.8852   87.8510   14.8559 C.3     1  UNL1        0.1394
     33 C          63.8467   87.1061   15.6411 C.ar    1  UNL1        0.0319
     34 C          63.1465   87.7779   16.7851 C.ar    1  UNL1        0.1379
     35 F          63.4849   89.1945   17.1438 F       1  UNL1       -0.2044
     36 C          62.1080   87.0330   17.5704 C.ar    1  UNL1        0.0294
     37 C          61.7696   85.6164   17.2117 C.ar    1  UNL1        0.0022
     38 C          62.4697   84.9446   16.0677 C.ar    1  UNL1        0.0037
     39 C          63.5082   85.6895   15.2824 C.ar    1  UNL1        0.0714
     40 C          64.2083   85.0178   14.1385 C.3     1  UNL1        0.4184
     41 F          64.9084   84.3460   12.9946 F       1  UNL1       -0.1659
     42 F          63.0290   85.2950   13.2540 F       1  UNL1       -0.1659
     43 F          65.3876   84.7406   15.0230 F       1  UNL1       -0.1659
@<TRIPOS>UNITY_ATOM_ATTR
19 1
charge -1
@<TRIPOS>BOND
     1    23    22    1
     2    23    21    1
     3    21     1    1
     4     1     2   ar
     5     2     3    2
     6     2     4   ar
     7     4     9    1
     8     9    10   ar
     9    10    11   ar
    10    11    12   ar
    11    12    15    1
    12    15    16    1
    13    16    17    1
    14    17    18    1
    15    18    19   ar
    16    18    20   ar
    17    12    13   ar
    18    13    14   ar
    19     4     5   ar
    20     5     6   ar
    21     6    32    1
    22    32    33    1
    23    33    34   ar
    24    34    35    1
    25    34    36   ar
    26    36    37   ar
    27    37    38   ar
    28    38    39   ar
    29    39    40    1
    30    40    41    1
    31    40    42    1
    32    40    43    1
    33     6     7   ar
    34     7     8    2
    35    23    26    1
    36    26    27   ar
    37    27    28   ar
    38    28    29   ar
    39    29    30   ar
    40    30    31   ar
    41     7     1   ar
    42    31    26   ar
    43    14     9   ar
    44    39    33   ar
    45    22    24    1
    46    22    25    1
@<TRIPOS>MOLECULE
*****
 43 46 0 0 0
SMALL
GASTEIGER

@<TRIPOS>ATOM
      1 N          63.9083   87.8371   13.8457 N.ar    1  UNL1       -0.2470
      2 C          62.9996   88.1732   12.7007 C.ar    1  UNL1        0.2657
      3 O          62.4882   89.5736   12.5351 O.2     1  UNL1       -0.2668
      4 C          62.6022   87.1089   11.7212 C.ar    1  UNL1        0.0736
      5 C          63.1136   85.7086   11.8868 C.ar    1  UNL1        0.0847
      6 N          64.0224   85.3725   13.0318 N.ar    1  UNL1       -0.2755
      7 C          64.4198   86.4367   14.0113 C.ar    1  UNL1        0.3341
      8 O          65.3286   86.1007   15.1564 O.2     1  UNL1       -0.2462
      9 C          61.6934   87.4450   10.5761 C.ar    1  UNL1        0.0060
     10 C          61.0302   86.3475    9.7980 C.ar    1  UNL1       -0.0000
     11 C          60.1214   86.6835    8.6529 C.ar    1  UNL1       -0.0018
     12 C          59.8758   88.1171    8.2860 C.ar    1  UNL1        0.0073
     13 C          60.5390   89.2146    9.0642 C.ar    1  UNL1       -0.0018
     14 C          61.4479   88.8786   10.2093 C.ar    1  UNL1       -0.0000
     15 C          58.9670   88.4531    7.1409 C.3     1  UNL1        0.1691
     16 O          58.6454   89.8857    6.8341 O.3     1  UNL1       -0.3430
     17 C          59.1558   90.5152    5.5718 C.3     1  UNL1        0.1839
     18 C          58.3659   91.6006    4.9025 C.2     1  UNL1        0.0801
     19 O          59.0528   92.5768    3.9941 O.co2   1  UNL1       -0.5466
     20 O          56.8891   91.7099    5.1416 O.co2   1  UNL1       -0.5466
     21 C          64.3058   88.9014   14.8253 C.3     1  UNL1        0.1334
     22 N          62.8531   91.0546   14.8837 N.3     1  UNL1       -0.3172
     23 C          64.1133   90.3483   14.4798 C.3     1  UNL1        0.0968
     24 H          62.2436   90.4050   15.3805 H       1  UNL1        0.1192
     25 H          62.3754   91.4003   14.0514 H       1  UNL1        0.1192
     26 C          65.1810   91.0889   13.7304 C.ar    1  UNL1       -0.0063
     27 C          64.8658   91.7254   12.4092 C.ar    1  UNL1       -0.0029
     28 C          65.9335   92.4660   11.6599 C.ar    1  UNL1       -0.0003
     29 C          67.3163   92.5701   12.2317 C.ar    1  UNL1       -0.0000
     30 C          67.6314   91.9337   13.5528 C.ar    1  UNL1       -0.0003
     31 C          66.5638   91.1931   14.3022 C.ar    1  UNL1       -0.0029
     32 C          64.5338   83.9721   13.1974 C.3     1  UNL1        0.1394
     33 C          63.5698   82.8252   13.2696 C.ar    1  UNL1        0.0319
     34 C          63.5700   81.7765   12.1971 C.ar    1  UNL1        0.1379
     35 F          64.5343   81.8747   11.0524 F       1  UNL1       -0.2044
     36 C          62.6060   80.6296   12.2694 C.ar    1  UNL1        0.0294
     37 C          61.6417   80.5314   13.4142 C.ar    1  UNL1        0.0022
     38 C          61.6414   81.5801   14.4866 C.ar    1  UNL1        0.0037
     39 C          62.6055   82.7270   14.4144 C.ar    1  UNL1        0.0714
     40 C          62.6052   83.7757   15.4869 C.3     1  UNL1        0.4184
     41 F          62.6049   84.8243   16.5593 F       1  UNL1       -0.1659
     42 F          63.8920   83.2248   16.0259 F       1  UNL1       -0.1659
     43 F          61.3184   84.3266   14.9478 F       1  UNL1       -0.1659
@<TRIPOS>UNITY_ATOM_ATTR
19 1
charge -1
@<TRIPOS>BOND
     1    23    22    1
     2    23    21    1
     3    21     1    1
     4     1     2   ar
     5     2     3    2
     6     2     4   ar
     7     4     9    1
     8     9    10   ar
     9    10    11   ar
    10    11    12   ar
    11    12    15    1
    12    15    16    1
    13    16    17    1
    14    17    18    1
    15    18    19   ar
    16    18    20   ar
    17    12    13   ar
    18    13    14   ar
    19     4     5   ar
    20     5     6   ar
    21     6    32    1
    22    32    33    1
    23    33    34   ar
    24    34    35    1
    25    34    36   ar
    26    36    37   ar
    27    37    38   ar
    28    38    39   ar
    29    39    40    1
    30    40    41    1
    31    40    42    1
    32    40    43    1
    33     6     7   ar
    34     7     8    2
    35    23    26    1
    36    26    27   ar
    37    27    28   ar
    38    28    29   ar
    39    29    30   ar
    40    30    31   ar
    41     7     1   ar
    42    31    26   ar
    43    14     9   ar
    44    39    33   ar
    45    22    24    1
    46    22    25    1
@<TRIPOS>MOLECULE
*****
 43 46 0 0 0
SMALL
GASTEIGER

@<TRIPOS>ATOM
      1 N          63.6917   88.7487   13.5270 N.ar    1  UNL1       -0.2470
      2 C          62.7915   88.8915   12.3358 C.ar    1  UNL1        0.2657
      3 O          62.2939   90.2471   11.9299 O.2     1  UNL1       -0.2668
      4 C          62.3888   87.6787   11.5504 C.ar    1  UNL1        0.0736
      5 C          62.8864   86.3230   11.9562 C.ar    1  UNL1        0.0847
      6 N          63.7866   86.1802   13.1475 N.ar    1  UNL1       -0.2755
      7 C          64.1893   87.3930   13.9329 C.ar    1  UNL1        0.3341
      8 O          65.0896   87.2503   15.1242 O.2     1  UNL1       -0.2462
      9 C          61.4885   87.8214   10.3590 C.ar    1  UNL1        0.0060
     10 C          61.0087   89.1795    9.9401 C.ar    1  UNL1       -0.0000
     11 C          60.1085   89.3223    8.7488 C.ar    1  UNL1       -0.0018
     12 C          59.6880   88.1070    7.9765 C.ar    1  UNL1        0.0073
     13 C          60.1678   86.7490    8.3954 C.ar    1  UNL1       -0.0018
     14 C          61.0681   86.6062    9.5868 C.ar    1  UNL1       -0.0000
     15 C          58.7878   88.2498    6.7852 C.3     1  UNL1        0.1691
     16 O          58.2146   89.5910    6.4347 O.3     1  UNL1       -0.3430
     17 C          58.9720   90.5171    5.5300 C.3     1  UNL1        0.1839
     18 C          58.2605   91.6485    4.8490 C.2     1  UNL1        0.0801
     19 O          59.0255   92.5982    3.9757 O.co2   1  UNL1       -0.5466
     20 O          56.7840   91.8300    5.0414 O.co2   1  UNL1       -0.5466
     21 C          64.0944   89.9615   14.3125 C.3     1  UNL1        0.1334
     22 N          64.5767   91.5177   12.2887 N.3     1  UNL1       -0.3172
     23 C          64.9210   91.0333   13.6660 C.3     1  UNL1        0.0968
     24 H          63.7594   91.0132   11.9453 H       1  UNL1        0.1192
     25 H          65.3655   91.3529   11.6633 H       1  UNL1        0.1192
     26 C          66.0918   91.6209   14.3968 C.ar    1  UNL1       -0.0063
     27 C          65.8979   92.2397   15.7494 C.ar    1  UNL1       -0.0029
     28 C          67.0687   92.8272   16.4801 C.ar    1  UNL1       -0.0003
     29 C          68.4334   92.7959   15.8583 C.ar    1  UNL1       -0.0000
     30 C          68.6273   92.1772   14.5057 C.ar    1  UNL1       -0.0003
     31 C          67.4565   91.5897   13.7750 C.ar    1  UNL1       -0.0029
     32 C          64.2841   84.8246   13.5533 C.3     1  UNL1        0.1394
     33 C          63.3495   83.6514   13.5525 C.ar    1  UNL1        0.0319
     34 C          62.5193   83.3530   14.7657 C.ar    1  UNL1        0.1379
     35 F          62.6238   84.2279   15.9797 F       1  UNL1       -0.2044
     36 C          61.5846   82.1799   14.7649 C.ar    1  UNL1        0.0294
     37 C          61.4801   81.3050   13.5509 C.ar    1  UNL1        0.0022
     38 C          62.3103   81.6034   12.3377 C.ar    1  UNL1        0.0037
     39 C          63.2450   82.7766   12.3385 C.ar    1  UNL1        0.0714
     40 C          64.0752   83.0749   11.1254 C.3     1  UNL1        0.4184
     41 F          64.9053   83.3733    9.9122 F       1  UNL1       -0.1659
     42 F          65.2161   82.3006   11.7157 F       1  UNL1       -0.1659
     43 F          62.9342   83.8493   10.5350 F       1  UNL1       -0.1659
@<TRIPOS>UNITY_ATOM_ATTR
19 1
charge -1
@<TRIPOS>BOND
     1    23    22    1
     2    23    21    1
     3    21     1    1
     4     1     2   ar
     5     2     3    2
     6     2     4   ar
     7     4     9    1
     8     9    10   ar
     9    10    11   ar
    10    11    12   ar
    11    12    15    1
    12    15    16    1
    13    16    17    1
    14    17    18    1
    15    18    19   ar
    16    18    20   ar
    17    12    13   ar
    18    13    14   ar
    19     4     5   ar
    20     5     6   ar
    21     6    32    1
    22    32    33    1
    23    33    34   ar
    24    34    35    1
    25    34    36   ar
    26    36    37   ar
    27    37    38   ar
    28    38    39   ar
    29    39    40    1
    30    40    41    1
    31    40    42    1
    32    40    43    1
    33     6     7   ar
    34     7     8    2
    35    23    26    1
    36    26    27   ar
    37    27    28   ar
    38    28    29   ar
    39    29    30   ar
    40    30    31   ar
    41     7     1   ar
    42    31    26   ar
    43    14     9   ar
    44    39    33   ar
    45    22    24    1
    46    22    25    1
@<TRIPOS>MOLECULE
*****
 43 46 0 0 0
SMALL
GASTEIGER

@<TRIPOS>ATOM
      1 N          60.3571   88.5236    9.8754 N.ar    1  UNL1       -0.2470
      2 C          60.9864   87.1862   10.1306 C.ar    1  UNL1        0.2657
      3 O          60.5119   85.9782    9.3786 O.2     1  UNL1       -0.2668
      4 C          62.0902   87.0568   11.1380 C.ar    1  UNL1        0.0736
      5 C          62.5647   88.2647   11.8901 C.ar    1  UNL1        0.0847
      6 N          61.9354   89.6022   11.6348 N.ar    1  UNL1       -0.2755
      7 C          60.8316   89.7316   10.6274 C.ar    1  UNL1        0.3341
      8 O          60.2022   91.0691   10.3721 O.2     1  UNL1       -0.2462
      9 C          62.7195   85.7193   11.3933 C.ar    1  UNL1        0.0060
     10 C          62.9176   84.7552   10.2613 C.ar    1  UNL1       -0.0000
     11 C          63.5469   83.4178   10.5166 C.ar    1  UNL1       -0.0018
     12 C          63.9782   83.0444   11.9039 C.ar    1  UNL1        0.0073
     13 C          63.7802   84.0084   13.0359 C.ar    1  UNL1       -0.0018
     14 C          63.1508   85.3459   12.7806 C.ar    1  UNL1       -0.0000
     15 C          64.6075   81.7069   12.1592 C.3     1  UNL1        0.1691
     16 O          64.0131   80.7806   13.1783 O.3     1  UNL1       -0.3430
     17 C          62.5418   80.4896   13.1595 C.3     1  UNL1        0.1839
     18 C          61.6373   81.1320   14.1690 C.2     1  UNL1        0.0801
     19 O          60.2074   80.6930   14.2817 O.co2   1  UNL1       -0.5466
     20 O          62.1626   82.2136   15.0659 O.co2   1  UNL1       -0.5466
     21 C          59.2532   88.6531    8.8679 C.3     1  UNL1        0.1334
     22 N          60.0913   87.1789    6.8996 N.3     1  UNL1       -0.3172
     23 C          59.5471   88.4813    7.4071 C.3     1  UNL1        0.0968
     24 H          60.1985   86.5288    7.6782 H       1  UNL1        0.1192
     25 H          60.9986   87.3372    6.4614 H       1  UNL1        0.1192
     26 C          59.2968   89.6120    6.4537 C.ar    1  UNL1       -0.0063
     27 C          60.4494   90.2855    5.7698 C.ar    1  UNL1       -0.0029
     28 C          60.1990   91.4162    4.8164 C.ar    1  UNL1       -0.0003
     29 C          58.7960   91.8732    4.5469 C.ar    1  UNL1       -0.0000
     30 C          57.6434   91.1997    5.2308 C.ar    1  UNL1       -0.0003
     31 C          57.8938   90.0691    6.1841 C.ar    1  UNL1       -0.0029
     32 C          62.4099   90.8102   12.3869 C.3     1  UNL1        0.1394
     33 C          63.8230   91.2866   12.2259 C.ar    1  UNL1        0.0319
     34 C          64.2621   91.9088   10.9335 C.ar    1  UNL1        0.1379
     35 F          63.2880   92.0545    9.8022 F       1  UNL1       -0.2044
     36 C          65.6753   92.3852   10.7725 C.ar    1  UNL1        0.0294
     37 C          66.6494   92.2396   11.9038 C.ar    1  UNL1        0.0022
     38 C          66.2104   91.6174   13.1961 C.ar    1  UNL1        0.0037
     39 C          64.7972   91.1409   13.3572 C.ar    1  UNL1        0.0714
     40 C          64.3581   90.5188   14.6495 C.3     1  UNL1        0.4184
     41 F          63.9191   89.8967   15.9418 F       1  UNL1       -0.1659
     42 F          64.0509   91.8797   15.2003 F       1  UNL1       -0.1659
     43 F          64.6654   89.1579   14.0987 F       1  UNL1       -0.1659
@<TRIPOS>UNITY_ATOM_ATTR
19 1
charge -1
@<TRIPOS>BOND
     1    23    22    1
     2    23    21    1
     3    21     1    1
     4     1     2   ar
     5     2     3    2
     6     2     4   ar
     7     4     9    1
     8     9    10   ar
     9    10    11   ar
    10    11    12   ar
    11    12    15    1
    12    15    16    1
    13    16    17    1
    14    17    18    1
    15    18    19   ar
    16    18    20   ar
    17    12    13   ar
    18    13    14   ar
    19     4     5   ar
    20     5     6   ar
    21     6    32    1
    22    32    33    1
    23    33    34   ar
    24    34    35    1
    25    34    36   ar
    26    36    37   ar
    27    37    38   ar
    28    38    39   ar
    29    39    40    1
    30    40    41    1
    31    40    42    1
    32    40    43    1
    33     6     7   ar
    34     7     8    2
    35    23    26    1
    36    26    27   ar
    37    27    28   ar
    38    28    29   ar
    39    29    30   ar
    40    30    31   ar
    41     7     1   ar
    42    31    26   ar
    43    14     9   ar
    44    39    33   ar
    45    22    24    1
    46    22    25    1
@<TRIPOS>MOLECULE
*****
 43 46 0 0 0
SMALL
GASTEIGER

@<TRIPOS>ATOM
      1 N          63.6113   88.9932   13.5154 N.ar    1  UNL1       -0.2470
      2 C          62.7206   89.1122   12.3145 C.ar    1  UNL1        0.2657
      3 O          62.1859   90.4531   11.9070 O.2     1  UNL1       -0.2668
      4 C          62.3645   87.8901   11.5209 C.ar    1  UNL1        0.0736
      5 C          62.8991   86.5492   11.9283 C.ar    1  UNL1        0.0847
      6 N          63.7899   86.4302   13.1293 N.ar    1  UNL1       -0.2755
      7 C          64.1460   87.6523   13.9228 C.ar    1  UNL1        0.3341
      8 O          65.0368   87.5334   15.1239 O.2     1  UNL1       -0.2462
      9 C          61.4737   88.0090   10.3199 C.ar    1  UNL1        0.0060
     10 C          61.0531   86.7779    9.5733 C.ar    1  UNL1       -0.0000
     11 C          60.1623   86.8967    8.3723 C.ar    1  UNL1       -0.0018
     12 C          59.6921   88.2467    7.9178 C.ar    1  UNL1        0.0073
     13 C          60.1128   89.4779    8.6644 C.ar    1  UNL1       -0.0018
     14 C          61.0036   89.3590    9.8654 C.ar    1  UNL1       -0.0000
     15 C          58.8014   88.3655    6.7168 C.3     1  UNL1        0.1691
     16 O          58.2320   89.6995    6.3344 O.3     1  UNL1       -0.3430
     17 C          58.9629   90.5757    5.3607 C.3     1  UNL1        0.1839
     18 C          58.3610   91.8793    4.9266 C.2     1  UNL1        0.0801
     19 O          56.8711   92.0522    4.9201 O.co2   1  UNL1       -0.5466
     20 O          59.2493   93.0099    4.4989 O.co2   1  UNL1       -0.5466
     21 C          63.9675   90.2153   14.3091 C.3     1  UNL1        0.1334
     22 N          66.4740   90.4708   14.9431 N.3     1  UNL1       -0.3172
     23 C          65.2973   90.8793   14.1074 C.3     1  UNL1        0.0968
     24 H          66.1918   89.7354   15.5912 H       1  UNL1        0.1192
     25 H          66.8132   91.2760   15.4694 H       1  UNL1        0.1192
     26 C          65.4504   91.9519   13.0700 C.ar    1  UNL1       -0.0063
     27 C          64.8827   91.7529   11.6959 C.ar    1  UNL1       -0.0029
     28 C          65.0358   92.8254   10.6586 C.ar    1  UNL1       -0.0003
     29 C          65.7567   94.0970   10.9953 C.ar    1  UNL1       -0.0000
     30 C          66.3244   94.2961   12.3694 C.ar    1  UNL1       -0.0003
     31 C          66.1712   93.2235   13.4067 C.ar    1  UNL1       -0.0029
     32 C          64.3245   85.0893   13.5367 C.3     1  UNL1        0.1394
     33 C          63.4014   83.9107   13.6302 C.ar    1  UNL1        0.0319
     34 C          62.6133   83.6729   14.8842 C.ar    1  UNL1        0.1379
     35 F          62.7484   84.6137   16.0446 F       1  UNL1       -0.2044
     36 C          61.6902   82.4943   14.9777 C.ar    1  UNL1        0.0294
     37 C          61.5552   81.5535   13.8173 C.ar    1  UNL1        0.0022
     38 C          62.3432   81.7912   12.5633 C.ar    1  UNL1        0.0037
     39 C          63.2663   82.9699   12.4698 C.ar    1  UNL1        0.0714
     40 C          64.0544   83.2076   11.2158 C.3     1  UNL1        0.4184
     41 F          64.8424   83.4454    9.9619 F       1  UNL1       -0.1659
     42 F          65.2245   82.4845   11.8141 F       1  UNL1       -0.1659
     43 F          62.8843   83.9308   10.6176 F       1  UNL1       -0.1659
@<TRIPOS>UNITY_ATOM_ATTR
19 1
charge -1
@<TRIPOS>BOND
     1    23    22    1
     2    23    21    1
     3    21     1    1
     4     1     2   ar
     5     2     3    2
     6     2     4   ar
     7     4     9    1
     8     9    10   ar
     9    10    11   ar
    10    11    12   ar
    11    12    15    1
    12    15    16    1
    13    16    17    1
    14    17    18    1
    15    18    19   ar
    16    18    20   ar
    17    12    13   ar
    18    13    14   ar
    19     4     5   ar
    20     5     6   ar
    21     6    32    1
    22    32    33    1
    23    33    34   ar
    24    34    35    1
    25    34    36   ar
    26    36    37   ar
    27    37    38   ar
    28    38    39   ar
    29    39    40    1
    30    40    41    1
    31    40    42    1
    32    40    43    1
    33     6     7   ar
    34     7     8    2
    35    23    26    1
    36    26    27   ar
    37    27    28   ar
    38    28    29   ar
    39    29    30   ar
    40    30    31   ar
    41     7     1   ar
    42    31    26   ar
    43    14     9   ar
    44    39    33   ar
    45    22    24    1
    46    22    25    1
@<TRIPOS>MOLECULE
*****
 43 46 0 0 0
SMALL
GASTEIGER

@<TRIPOS>ATOM
      1 N          64.2169   88.1622   13.8218 N.ar    1  UNL1       -0.2470
      2 C          63.2935   87.9483   12.6592 C.ar    1  UNL1        0.2657
      3 O          62.8499   86.5614   12.2991 O.2     1  UNL1       -0.2668
      4 C          62.8137   89.1213   11.8569 C.ar    1  UNL1        0.0736
      5 C          63.2574   90.5082   12.2170 C.ar    1  UNL1        0.0847
      6 N          64.1808   90.7221   13.3796 N.ar    1  UNL1       -0.2755
      7 C          64.6605   89.5491   14.1819 C.ar    1  UNL1        0.3341
      8 O          65.5840   89.7629   15.3445 O.2     1  UNL1       -0.2462
      9 C          61.8903   88.9074   10.6943 C.ar    1  UNL1        0.0060
     10 C          60.8710   89.9508   10.3443 C.ar    1  UNL1       -0.0000
     11 C          59.9476   89.7369    9.1818 C.ar    1  UNL1       -0.0018
     12 C          60.0434   88.4797    8.3691 C.ar    1  UNL1        0.0073
     13 C          61.0627   87.4364    8.7191 C.ar    1  UNL1       -0.0018
     14 C          61.9862   87.6503    9.8817 C.ar    1  UNL1       -0.0000
     15 C          59.1200   88.2659    7.2066 C.3     1  UNL1        0.1691
     16 O          58.3710   89.4259    6.6205 O.3     1  UNL1       -0.3430
     17 C          59.0464   90.3351    5.6371 C.3     1  UNL1        0.1839
     18 C          58.3184   91.5310    5.0988 C.2     1  UNL1        0.0801
     19 O          56.8190   91.5666    5.1158 O.co2   1  UNL1       -0.5466
     20 O          59.0900   92.6913    4.5434 O.co2   1  UNL1       -0.5466
     21 C          64.6967   86.9891   14.6242 C.3     1  UNL1        0.1334
     22 N          62.8986   86.5143   16.4383 N.3     1  UNL1       -0.3172
     23 C          63.7059   86.0590   15.2590 C.3     1  UNL1        0.0968
     24 H          63.1503   87.4746   16.6723 H       1  UNL1        0.1192
     25 H          63.0906   85.9084   17.2361 H       1  UNL1        0.1192
     26 C          63.5223   84.6734   14.7143 C.ar    1  UNL1       -0.0063
     27 C          64.5498   84.0880   13.7916 C.ar    1  UNL1       -0.0029
     28 C          64.3662   82.7025   13.2470 C.ar    1  UNL1       -0.0003
     29 C          63.1551   81.9024   13.6252 C.ar    1  UNL1       -0.0000
     30 C          62.1275   82.4878   14.5479 C.ar    1  UNL1       -0.0003
     31 C          62.3112   83.8733   15.0924 C.ar    1  UNL1       -0.0029
     32 C          64.6244   92.1090   13.7397 C.3     1  UNL1        0.1394
     33 C          65.9790   92.3297   14.3450 C.ar    1  UNL1        0.0319
     34 C          66.1210   92.4821   15.8305 C.ar    1  UNL1        0.1379
     35 F          64.9083   92.4138   16.7107 F       1  UNL1       -0.2044
     36 C          67.4755   92.7028   16.4357 C.ar    1  UNL1        0.0294
     37 C          68.6882   92.7711   15.5555 C.ar    1  UNL1        0.0022
     38 C          68.5463   92.6187   14.0701 C.ar    1  UNL1        0.0037
     39 C          67.1917   92.3979   13.4647 C.ar    1  UNL1        0.0714
     40 C          67.0497   92.2455   11.9793 C.3     1  UNL1        0.4184
     41 F          66.9078   92.0931   10.4939 F       1  UNL1       -0.1659
     42 F          68.1273   91.2021   11.9834 F       1  UNL1       -0.1659
     43 F          65.9722   93.2890   11.9752 F       1  UNL1       -0.1659
@<TRIPOS>UNITY_ATOM_ATTR
19 1
charge -1
@<TRIPOS>BOND
     1    23    22    1
     2    23    21    1
     3    21     1    1
     4     1     2   ar
     5     2     3    2
     6     2     4   ar
     7     4     9    1
     8     9    10   ar
     9    10    11   ar
    10    11    12   ar
    11    12    15    1
    12    15    16    1
    13    16    17    1
    14    17    18    1
    15    18    19   ar
    16    18    20   ar
    17    12    13   ar
    18    13    14   ar
    19     4     5   ar
    20     5     6   ar
    21     6    32    1
    22    32    33    1
    23    33    34   ar
    24    34    35    1
    25    34    36   ar
    26    36    37   ar
    27    37    38   ar
    28    38    39   ar
    29    39    40    1
    30    40    41    1
    31    40    42    1
    32    40    43    1
    33     6     7   ar
    34     7     8    2
    35    23    26    1
    36    26    27   ar
    37    27    28   ar
    38    28    29   ar
    39    29    30   ar
    40    30    31   ar
    41     7     1   ar
    42    31    26   ar
    43    14     9   ar
    44    39    33   ar
    45    22    24    1
    46    22    25    1
@<TRIPOS>MOLECULE
*****
 43 46 0 0 0
SMALL
GASTEIGER

@<TRIPOS>ATOM
      1 N          63.7593   86.7909   13.4590 N.ar    1  UNL1       -0.2470
      2 C          62.8850   86.8060   12.2403 C.ar    1  UNL1        0.2657
      3 O          62.4090   85.5151   11.6428 O.2     1  UNL1       -0.2668
      4 C          62.4867   88.1119   11.6191 C.ar    1  UNL1        0.0736
      5 C          62.9628   89.4028   12.2167 C.ar    1  UNL1        0.0847
      6 N          63.8371   89.3877   13.4354 N.ar    1  UNL1       -0.2755
      7 C          64.2354   88.0818   14.0565 C.ar    1  UNL1        0.3341
      8 O          65.1098   88.0667   15.2753 O.2     1  UNL1       -0.2462
      9 C          61.6124   88.1270   10.4004 C.ar    1  UNL1        0.0060
     10 C          61.3554   86.8562    9.6459 C.ar    1  UNL1       -0.0000
     11 C          60.4811   86.8713    8.4272 C.ar    1  UNL1       -0.0018
     12 C          59.8637   88.1571    7.9629 C.ar    1  UNL1        0.0073
     13 C          60.1207   89.4279    8.7173 C.ar    1  UNL1       -0.0018
     14 C          60.9950   89.4128    9.9361 C.ar    1  UNL1       -0.0000
     15 C          58.9893   88.1722    6.7442 C.3     1  UNL1        0.1691
     16 O          58.3019   89.4394    6.3299 O.3     1  UNL1       -0.3430
     17 C          59.0480   90.4741    5.5410 C.3     1  UNL1        0.1839
     18 C          58.3263   91.6773    5.0105 C.2     1  UNL1        0.0801
     19 O          59.1030   92.8259    4.4383 O.co2   1  UNL1       -0.5466
     20 O          56.8279   91.7318    5.0521 O.co2   1  UNL1       -0.5466
     21 C          64.1577   85.4850   14.0803 C.3     1  UNL1        0.1334
     22 N          62.2547   85.0270   15.7887 N.3     1  UNL1       -0.3172
     23 C          63.1095   84.5716   14.6433 C.3     1  UNL1        0.0968
     24 H          62.5205   85.9749   16.0555 H       1  UNL1        0.1192
     25 H          62.3879   84.4004   16.5824 H       1  UNL1        0.1192
     26 C          62.9160   83.2028   14.0609 C.ar    1  UNL1       -0.0063
     27 C          61.8269   82.3130   14.5823 C.ar    1  UNL1       -0.0029
     28 C          61.6335   80.9443   13.9999 C.ar    1  UNL1       -0.0003
     29 C          62.5292   80.4655   12.8961 C.ar    1  UNL1       -0.0000
     30 C          63.6183   81.3553   12.3747 C.ar    1  UNL1       -0.0003
     31 C          63.8118   82.7240   12.9571 C.ar    1  UNL1       -0.0029
     32 C          64.3132   90.6786   14.0329 C.3     1  UNL1        0.1394
     33 C          65.0281   91.6823   13.1777 C.ar    1  UNL1        0.0319
     34 C          64.5155   91.9975   11.8036 C.ar    1  UNL1        0.1379
     35 F          63.2880   91.3089   11.2848 F       1  UNL1       -0.2044
     36 C          65.2304   93.0012   10.9484 C.ar    1  UNL1        0.0294
     37 C          66.4579   93.6898   11.4672 C.ar    1  UNL1        0.0022
     38 C          66.9705   93.3746   12.8412 C.ar    1  UNL1        0.0037
     39 C          66.2556   92.3709   13.6965 C.ar    1  UNL1        0.0714
     40 C          66.7681   92.0557   15.0705 C.3     1  UNL1        0.4184
     41 F          67.2807   91.7406   16.4445 F       1  UNL1       -0.1659
     42 F          65.7926   93.0318   15.6583 F       1  UNL1       -0.1659
     43 F          67.7437   91.0796   14.4827 F       1  UNL1       -0.1659
@<TRIPOS>UNITY_ATOM_ATTR
19 1
charge -1
@<TRIPOS>BOND
     1    23    22    1
     2    23    21    1
     3    21     1    1
     4     1     2   ar
     5     2     3    2
     6     2     4   ar
     7     4     9    1
     8     9    10   ar
     9    10    11   ar
    10    11    12   ar
    11    12    15    1
    12    15    16    1
    13    16    17    1
    14    17    18    1
    15    18    19   ar
    16    18    20   ar
    17    12    13   ar
    18    13    14   ar
    19     4     5   ar
    20     5     6   ar
    21     6    32    1
    22    32    33    1
    23    33    34   ar
    24    34    35    1
    25    34    36   ar
    26    36    37   ar
    27    37    38   ar
    28    38    39   ar
    29    39    40    1
    30    40    41    1
    31    40    42    1
    32    40    43    1
    33     6     7   ar
    34     7     8    2
    35    23    26    1
    36    26    27   ar
    37    27    28   ar
    38    28    29   ar
    39    29    30   ar
    40    30    31   ar
    41     7     1   ar
    42    31    26   ar
    43    14     9   ar
    44    39    33   ar
    45    22    24    1
    46    22    25    1
@<TRIPOS>MOLECULE
*****
 43 46 0 0 0
SMALL
GASTEIGER

@<TRIPOS>ATOM
      1 N          64.0494   88.2093   13.9141 N.ar    1  UNL1       -0.2470
      2 C          63.9142   86.7281   14.1084 C.ar    1  UNL1        0.2657
      3 O          64.4032   86.0901   15.3748 O.2     1  UNL1       -0.2668
      4 C          63.2899   85.8850   13.0363 C.ar    1  UNL1        0.0736
      5 C          62.8009   86.5230   11.7699 C.ar    1  UNL1        0.0847
      6 N          62.9361   88.0042   11.5756 N.ar    1  UNL1       -0.2755
      7 C          63.5603   88.8473   12.6477 C.ar    1  UNL1        0.3341
      8 O          63.6956   90.3286   12.4534 O.2     1  UNL1       -0.2462
      9 C          63.1547   84.4037   13.2306 C.ar    1  UNL1        0.0060
     10 C          62.4527   83.8673   14.4428 C.ar    1  UNL1       -0.0000
     11 C          62.3175   82.3861   14.6371 C.ar    1  UNL1       -0.0018
     12 C          62.8842   81.4413   13.6192 C.ar    1  UNL1        0.0073
     13 C          63.5862   81.9777   12.4069 C.ar    1  UNL1       -0.0018
     14 C          63.7214   83.4590   12.2127 C.ar    1  UNL1       -0.0000
     15 C          62.7490   79.9601   13.8135 C.3     1  UNL1        0.1691
     16 O          61.3878   79.3329   13.8748 O.3     1  UNL1       -0.3430
     17 C          60.1842   80.1797   14.1651 C.3     1  UNL1        0.1839
     18 C          58.9079   79.5375   14.6218 C.2     1  UNL1        0.0801
     19 O          57.8725   80.3529   15.3380 O.co2   1  UNL1       -0.5466
     20 O          58.6669   78.0799   14.3621 O.co2   1  UNL1       -0.5466
     21 C          64.6736   89.0525   14.9862 C.3     1  UNL1        0.1334
     22 N          63.2114   91.1960   14.8552 N.3     1  UNL1       -0.3172
     23 C          64.5619   90.5470   14.9251 C.3     1  UNL1        0.0968
     24 H          62.4880   90.4769   14.8587 H       1  UNL1        0.1192
     25 H          63.1416   91.7443   13.9979 H       1  UNL1        0.1192
     26 C          65.8008   91.3927   14.9339 C.ar    1  UNL1       -0.0063
     27 C          66.0695   92.3174   16.0840 C.ar    1  UNL1       -0.0029
     28 C          67.3084   93.1630   16.0928 C.ar    1  UNL1       -0.0003
     29 C          68.2785   93.0840   14.9515 C.ar    1  UNL1       -0.0000
     30 C          68.0098   92.1593   13.8014 C.ar    1  UNL1       -0.0003
     31 C          66.7710   91.3137   13.7926 C.ar    1  UNL1       -0.0029
     32 C          62.4471   88.6422   10.3092 C.3     1  UNL1        0.1394
     33 C          61.3943   87.9624    9.4849 C.ar    1  UNL1        0.0319
     34 C          61.7627   86.8065    8.6027 C.ar    1  UNL1        0.1379
     35 F          63.1840   86.3304    8.5449 F       1  UNL1       -0.2044
     36 C          60.7100   86.1267    7.7784 C.ar    1  UNL1        0.0294
     37 C          59.2887   86.6028    7.8363 C.ar    1  UNL1        0.0022
     38 C          58.9202   87.7587    8.7184 C.ar    1  UNL1        0.0037
     39 C          59.9730   88.4385    9.5427 C.ar    1  UNL1        0.0714
     40 C          59.6046   89.5944   10.4248 C.3     1  UNL1        0.4184
     41 F          59.2361   90.7502   11.3070 F       1  UNL1       -0.1659
     42 F          59.3708   88.6491   11.5658 F       1  UNL1       -0.1659
     43 F          59.8383   90.5396    9.2839 F       1  UNL1       -0.1659
@<TRIPOS>UNITY_ATOM_ATTR
19 1
charge -1
@<TRIPOS>BOND
     1    23    22    1
     2    23    21    1
     3    21     1    1
     4     1     2   ar
     5     2     3    2
     6     2     4   ar
     7     4     9    1
     8     9    10   ar
     9    10    11   ar
    10    11    12   ar
    11    12    15    1
    12    15    16    1
    13    16    17    1
    14    17    18    1
    15    18    19   ar
    16    18    20   ar
    17    12    13   ar
    18    13    14   ar
    19     4     5   ar
    20     5     6   ar
    21     6    32    1
    22    32    33    1
    23    33    34   ar
    24    34    35    1
    25    34    36   ar
    26    36    37   ar
    27    37    38   ar
    28    38    39   ar
    29    39    40    1
    30    40    41    1
    31    40    42    1
    32    40    43    1
    33     6     7   ar
    34     7     8    2
    35    23    26    1
    36    26    27   ar
    37    27    28   ar
    38    28    29   ar
    39    29    30   ar
    40    30    31   ar
    41     7     1   ar
    42    31    26   ar
    43    14     9   ar
    44    39    33   ar
    45    22    24    1
    46    22    25    1
@<TRIPOS>MOLECULE
*****
 43 46 0 0 0
SMALL
GASTEIGER

@<TRIPOS>ATOM
      1 N          64.0452   88.2603   14.0107 N.ar    1  UNL1       -0.2470
      2 C          63.9454   86.7806   14.2352 C.ar    1  UNL1        0.2657
      3 O          64.4159   86.1849   15.5289 O.2     1  UNL1       -0.2668
      4 C          63.3751   85.8967   13.1659 C.ar    1  UNL1        0.0736
      5 C          62.9046   86.4924   11.8722 C.ar    1  UNL1        0.0847
      6 N          63.0044   87.9721   11.6477 N.ar    1  UNL1       -0.2755
      7 C          63.5747   88.8561   12.7169 C.ar    1  UNL1        0.3341
      8 O          63.6745   90.3359   12.4925 O.2     1  UNL1       -0.2462
      9 C          63.2753   84.4169   13.3904 C.ar    1  UNL1        0.0060
     10 C          62.1989   83.8637   14.2766 C.ar    1  UNL1       -0.0000
     11 C          62.0990   82.3839   14.5011 C.ar    1  UNL1       -0.0018
     12 C          63.0756   81.4573   13.8394 C.ar    1  UNL1        0.0073
     13 C          64.1520   82.0105   12.9532 C.ar    1  UNL1       -0.0018
     14 C          64.2518   83.4903   12.7287 C.ar    1  UNL1       -0.0000
     15 C          62.9757   79.9776   14.0639 C.3     1  UNL1        0.1691
     16 O          62.5002   79.0818   12.9588 O.3     1  UNL1       -0.3430
     17 C          62.5068   79.5714   11.5410 C.3     1  UNL1        0.1839
     18 C          62.8138   78.6220   10.4210 C.2     1  UNL1        0.0801
     19 O          62.9692   77.1567   10.7013 O.co2   1  UNL1       -0.5466
     20 O          62.9654   79.1380    9.0207 O.co2   1  UNL1       -0.5466
     21 C          64.6155   89.1444   15.0799 C.3     1  UNL1        0.1334
     22 N          63.2027   91.3074   14.8057 N.3     1  UNL1       -0.3172
     23 C          64.5371   90.6359   14.9407 C.3     1  UNL1        0.0968
     24 H          62.4643   90.6041   14.8282 H       1  UNL1        0.1192
     25 H          63.1643   91.8126   13.9204 H       1  UNL1        0.1192
     26 C          65.7932   91.4558   14.9366 C.ar    1  UNL1       -0.0063
     27 C          66.7521   91.3532   13.7877 C.ar    1  UNL1       -0.0029
     28 C          68.0081   92.1731   13.7836 C.ar    1  UNL1       -0.0003
     29 C          68.3053   93.0957   14.9284 C.ar    1  UNL1       -0.0000
     30 C          67.3464   93.1983   16.0773 C.ar    1  UNL1       -0.0003
     31 C          66.0904   92.3784   16.0814 C.ar    1  UNL1       -0.0029
     32 C          62.5338   88.5678   10.3540 C.3     1  UNL1        0.1394
     33 C          61.4938   87.8603    9.5369 C.ar    1  UNL1        0.0319
     34 C          61.8903   86.7298    8.6342 C.ar    1  UNL1        0.1379
     35 F          63.3268   86.3069    8.5486 F       1  UNL1       -0.2044
     36 C          60.8502   86.0224    7.8171 C.ar    1  UNL1        0.0294
     37 C          59.4136   86.4453    7.9027 C.ar    1  UNL1        0.0022
     38 C          59.0171   87.5758    8.8053 C.ar    1  UNL1        0.0037
     39 C          60.0572   88.2833    9.6225 C.ar    1  UNL1        0.0714
     40 C          59.6607   89.4138   10.5251 C.3     1  UNL1        0.4184
     41 F          59.2642   90.5442   11.4277 F       1  UNL1       -0.1659
     42 F          59.4303   88.4404   11.6429 F       1  UNL1       -0.1659
     43 F          59.8911   90.3871    9.4073 F       1  UNL1       -0.1659
@<TRIPOS>UNITY_ATOM_ATTR
19 1
charge -1
@<TRIPOS>BOND
     1    23    22    1
     2    23    21    1
     3    21     1    1
     4     1     2   ar
     5     2     3    2
     6     2     4   ar
     7     4     9    1
     8     9    10   ar
     9    10    11   ar
    10    11    12   ar
    11    12    15    1
    12    15    16    1
    13    16    17    1
    14    17    18    1
    15    18    19   ar
    16    18    20   ar
    17    12    13   ar
    18    13    14   ar
    19     4     5   ar
    20     5     6   ar
    21     6    32    1
    22    32    33    1
    23    33    34   ar
    24    34    35    1
    25    34    36   ar
    26    36    37   ar
    27    37    38   ar
    28    38    39   ar
    29    39    40    1
    30    40    41    1
    31    40    42    1
    32    40    43    1
    33     6     7   ar
    34     7     8    2
    35    23    26    1
    36    26    27   ar
    37    27    28   ar
    38    28    29   ar
    39    29    30   ar
    40    30    31   ar
    41     7     1   ar
    42    31    26   ar
    43    14     9   ar
    44    39    33   ar
    45    22    24    1
    46    22    25    1
