@<TRIPOS>MOLECULE
*****
 43 46 0 0 0
SMALL
GASTEIGER

@<TRIPOS>ATOM
      1 N          64.4168   91.0688   12.7871 N.pl3   1  UNL1       -0.3043
      2 C          63.4914   91.7580   11.8286 C.3     1  UNL1        0.1123
      3 C          62.5680   90.9503   10.9656 C.3     1  UNL1        0.1149
      4 N          62.5699   89.4533   11.0610 N.am    1  UNL1       -0.2747
      5 C          61.6464   88.6456   10.1980 C.2     1  UNL1        0.2442
      6 O          60.7210   89.3349    9.2396 O.2     1  UNL1       -0.2731
      7 C          63.4952   88.7641   12.0195 C.3     1  UNL1        0.1149
      8 C          64.4187   89.5719   12.8825 C.3     1  UNL1        0.1123
      9 C          66.1319   93.0022   13.0531 C.ar    1  UNL1        0.0076
     10 C          67.0553   93.8099   13.9161 C.ar    1  UNL1        0.0279
     11 C          67.1871   93.4920   15.3761 C.ar    1  UNL1        0.1400
     12 F          68.1106   94.2998   16.2392 F       1  UNL1       -0.2042
     13 C          66.3956   92.3664   15.9731 C.ar    1  UNL1        0.0309
     14 C          65.4722   91.5587   15.1101 C.ar    1  UNL1        0.0165
     15 C          65.3403   91.8766   13.6501 C.ar    1  UNL1        0.0453
     16 C          66.0000   93.3201   11.5931 C.3     1  UNL1        0.0781
     17 N          65.3654   94.6085   11.1604 N.3     1  UNL1       -0.2939
     18 H          64.8481   94.4089   10.3043 H       1  UNL1        0.1235
     19 C          66.2204   95.8086   10.8800 C.3     1  UNL1        0.0861
     20 C          67.0630   95.8559    9.6398 C.3     1  UNL1        0.0859
     21 C          65.5829   96.8555    7.7531 C.3     1  UNL1        0.0859
     22 N          66.4193   95.7324    8.2906 N.3     1  UNL1       -0.2952
     23 H          67.1710   95.5774    7.6188 H       1  UNL1        0.1233
     24 C          66.5027   92.3496   10.5659 C.3     1  UNL1        0.0203
     25 C          67.9745   92.0915   10.4348 C.3     1  UNL1        0.0017
     26 C          68.6741   92.3796    9.1395 C.3     1  UNL1        0.0001
     27 C          68.7468   91.5453   11.5989 C.3     1  UNL1        0.0001
     28 C          61.6483   87.1487   10.2935 C.3     1  UNL1        0.1564
     29 N          61.7412   86.3179    9.0481 N.am    1  UNL1       -0.2727
     30 C          62.9754   85.6412    8.5296 C.3     1  UNL1        0.0943
     31 C          62.6132   84.9230    7.2635 C.3     1  UNL1        0.0311
     32 C          61.1551   85.1557    6.9995 C.3     1  UNL1        0.0870
     33 C          60.6161   86.0179    8.1024 C.2     1  UNL1        0.2260
     34 O          59.2007   86.4960    8.2361 O.2     1  UNL1       -0.2749
     35 C          61.5574   86.4825   11.6344 C.3     1  UNL1        0.0564
     36 C          62.3392   85.2313   11.9048 C.ar    1  UNL1       -0.0094
     37 C          62.0808   83.9956   11.0945 C.ar    1  UNL1       -0.0025
     38 C          62.8626   82.7444   11.3649 C.ar    1  UNL1        0.0111
     39 C          63.9029   82.7287   12.4455 C.ar    1  UNL1        0.0585
     40 CL         64.6847   81.4775   12.7159 Cl      1  UNL1       -0.0822
     41 C          64.1612   83.9643   13.2557 C.ar    1  UNL1        0.0225
     42 C          63.3794   85.2156   12.9853 C.ar    1  UNL1        0.0546
     43 CL         63.6378   86.4512   13.7955 Cl      1  UNL1       -0.0825
@<TRIPOS>BOND
     1    21    22    1
     2    22    20    1
     3    20    19    1
     4    19    17    1
     5    17    16    1
     6    16    24    1
     7    24    25    1
     8    25    26    1
     9    25    27    1
    10    16     9    1
    11     9    10   ar
    12    10    11   ar
    13    11    12    1
    14    11    13   ar
    15    13    14   ar
    16    14    15   ar
    17    15     1    1
    18     1     2    1
    19     2     3    1
    20     3     4    1
    21     4     5   am
    22     5     6    2
    23     5    28    1
    24    28    35    1
    25    35    36    1
    26    36    37   ar
    27    37    38   ar
    28    38    39   ar
    29    39    40    1
    30    39    41   ar
    31    41    42   ar
    32    42    43    1
    33    28    29    1
    34    29    30    1
    35    30    31    1
    36    31    32    1
    37    32    33    1
    38    33    34    2
    39     4     7    1
    40     7     8    1
    41    15     9   ar
    42     8     1    1
    43    42    36   ar
    44    33    29   am
    45    22    23    1
    46    17    18    1
@<TRIPOS>MOLECULE
*****
 43 46 0 0 0
SMALL
GASTEIGER

@<TRIPOS>ATOM
      1 N          61.5756   86.2777    9.4477 N.pl3   1  UNL1       -0.3043
      2 C          62.7426   85.6211    8.7717 C.3     1  UNL1        0.1123
      3 C          63.5931   84.6426    9.5261 C.3     1  UNL1        0.1149
      4 N          63.2765   84.3206   10.9566 N.am    1  UNL1       -0.2747
      5 C          64.1269   83.3421   11.7111 C.2     1  UNL1        0.2442
      6 O          65.2939   82.6855   11.0351 O.2     1  UNL1       -0.2731
      7 C          62.1094   84.9772   11.6326 C.3     1  UNL1        0.1149
      8 C          61.2590   85.9558   10.8781 C.3     1  UNL1        0.1123
      9 C          60.6939   88.6977    9.1069 C.ar    1  UNL1        0.0076
     10 C          59.8435   89.6762    8.3524 C.ar    1  UNL1        0.0279
     11 C          59.0244   89.2133    7.1841 C.ar    1  UNL1        0.1400
     12 F          58.1739   90.1918    6.4296 F       1  UNL1       -0.2042
     13 C          59.0557   87.7718    6.7704 C.ar    1  UNL1        0.0309
     14 C          59.9061   86.7933    7.5249 C.ar    1  UNL1        0.0165
     15 C          60.7252   87.2563    8.6932 C.ar    1  UNL1        0.0453
     16 C          61.5130   89.1607   10.2751 C.3     1  UNL1        0.0781
     17 N          62.8811   89.7338   10.0517 N.3     1  UNL1       -0.2939
     18 H          63.5254   89.1899   10.6257 H       1  UNL1        0.1235
     19 C          63.1472   91.1789   10.3528 C.3     1  UNL1        0.0861
     20 C          64.0908   91.5536   11.4570 C.3     1  UNL1        0.0859
     21 C          64.6770   91.2065   13.9642 C.3     1  UNL1        0.0859
     22 N          63.6570   91.4322   12.8878 N.3     1  UNL1       -0.2952
     23 H          63.1684   92.2965   13.1217 H       1  UNL1        0.1233
     24 C          60.9640   89.0506   11.6666 C.3     1  UNL1        0.0203
     25 C          59.6195   89.6313   11.9906 C.3     1  UNL1        0.0017
     26 C          59.2659   91.0115   11.5215 C.3     1  UNL1        0.0001
     27 C          58.6286   88.8319   12.7837 C.3     1  UNL1        0.0001
     28 C          63.8103   83.0201   13.1415 C.3     1  UNL1        0.1564
     29 N          62.6816   82.0878   13.4683 N.am    1  UNL1       -0.2727
     30 C          61.6403   82.3008   14.5268 C.3     1  UNL1        0.0943
     31 C          60.7112   81.1234   14.5067 C.3     1  UNL1        0.0311
     32 C          61.1782   80.1826   13.4358 C.3     1  UNL1        0.0870
     33 C          62.3960   80.7786   12.7940 C.2     1  UNL1        0.2260
     34 O          63.1889   80.1720   11.6745 O.2     1  UNL1       -0.2749
     35 C          64.6223   83.6306   14.2451 C.3     1  UNL1        0.0564
     36 C          64.2510   84.9766   14.7932 C.ar    1  UNL1       -0.0094
     37 C          64.7139   86.2229   14.0986 C.ar    1  UNL1       -0.0025
     38 C          64.3426   87.5689   14.6466 C.ar    1  UNL1        0.0111
     39 C          63.5084   87.6686   15.8893 C.ar    1  UNL1        0.0585
     40 CL         63.1370   89.0146   16.4374 Cl      1  UNL1       -0.0822
     41 C          63.0455   86.4223   16.5839 C.ar    1  UNL1        0.0225
     42 C          63.4169   85.0763   16.0358 C.ar    1  UNL1        0.0546
     43 CL         62.9540   83.8300   16.7304 Cl      1  UNL1       -0.0825
@<TRIPOS>BOND
     1    21    22    1
     2    22    20    1
     3    20    19    1
     4    19    17    1
     5    17    16    1
     6    16    24    1
     7    24    25    1
     8    25    26    1
     9    25    27    1
    10    16     9    1
    11     9    10   ar
    12    10    11   ar
    13    11    12    1
    14    11    13   ar
    15    13    14   ar
    16    14    15   ar
    17    15     1    1
    18     1     2    1
    19     2     3    1
    20     3     4    1
    21     4     5   am
    22     5     6    2
    23     5    28    1
    24    28    35    1
    25    35    36    1
    26    36    37   ar
    27    37    38   ar
    28    38    39   ar
    29    39    40    1
    30    39    41   ar
    31    41    42   ar
    32    42    43    1
    33    28    29    1
    34    29    30    1
    35    30    31    1
    36    31    32    1
    37    32    33    1
    38    33    34    2
    39     4     7    1
    40     7     8    1
    41    15     9   ar
    42     8     1    1
    43    42    36   ar
    44    33    29   am
    45    22    23    1
    46    17    18    1
@<TRIPOS>MOLECULE
*****
 43 46 0 0 0
SMALL
GASTEIGER

@<TRIPOS>ATOM
      1 N          63.4259   85.3965   13.9315 N.pl3   1  UNL1       -0.3043
      2 C          63.0405   85.6480   15.3592 C.3     1  UNL1        0.1123
      3 C          63.1997   87.0180   15.9488 C.3     1  UNL1        0.1149
      4 N          63.7443   88.1366   15.1108 N.am    1  UNL1       -0.2747
      5 C          63.9034   89.5066   15.7004 C.2     1  UNL1        0.2442
      6 O          63.5180   89.7581   17.1280 O.2     1  UNL1       -0.2731
      7 C          64.1297   87.8851   13.6831 C.3     1  UNL1        0.1149
      8 C          63.9705   86.5150   13.0935 C.3     1  UNL1        0.1123
      9 C          62.7096   83.8653   11.9586 C.ar    1  UNL1        0.0076
     10 C          62.5504   82.4952   11.3691 C.ar    1  UNL1        0.0279
     11 C          62.9484   81.2863   12.1629 C.ar    1  UNL1        0.1400
     12 F          62.7892   79.9162   11.5733 F       1  UNL1       -0.2042
     13 C          63.5055   81.4474   13.5462 C.ar    1  UNL1        0.0309
     14 C          63.6646   82.8174   14.1357 C.ar    1  UNL1        0.0165
     15 C          63.2667   84.0264   13.3419 C.ar    1  UNL1        0.0453
     16 C          62.3117   85.0742   11.1648 C.3     1  UNL1        0.0781
     17 N          61.2281   85.9799   11.6702 N.3     1  UNL1       -0.2939
     18 H          60.3457   85.6078   11.3191 H       1  UNL1        0.1235
     19 C          61.2498   87.4399   11.3264 C.3     1  UNL1        0.0861
     20 C          59.9641   88.2062   11.2271 C.3     1  UNL1        0.0859
     21 C          59.2758   90.6831   11.6025 C.3     1  UNL1        0.0859
     22 N          59.7024   89.3554   12.1549 N.3     1  UNL1       -0.2952
     23 H          58.9693   89.0544   12.7970 H       1  UNL1        0.1233
     24 C          62.9973   85.3774    9.8656 C.3     1  UNL1        0.0203
     25 C          62.2185   85.3564    8.5838 C.3     1  UNL1        0.0017
     26 C          60.8303   85.9231    8.5403 C.3     1  UNL1        0.0001
     27 C          62.8279   84.7687    7.3456 C.3     1  UNL1        0.0001
     28 C          64.4480   90.6251   14.8623 C.3     1  UNL1        0.1564
     29 N          65.7044   91.3310   15.2784 N.am    1  UNL1       -0.2727
     30 C          67.0790   91.0792   14.7334 C.3     1  UNL1        0.0943
     31 C          68.0310   92.0052   15.4308 C.3     1  UNL1        0.0311
     32 C          67.2448   92.8293   16.4068 C.3     1  UNL1        0.0870
     33 C          65.8068   92.4126   16.3127 C.2     1  UNL1        0.2260
     34 O          64.6709   92.9782   17.1124 O.2     1  UNL1       -0.2749
     35 C          63.7362   91.0378   13.6081 C.3     1  UNL1        0.0564
     36 C          64.4618   91.8270   12.5590 C.ar    1  UNL1       -0.0094
     37 C          65.4899   92.8424   12.9616 C.ar    1  UNL1       -0.0025
     38 C          66.2155   93.6316   11.9124 C.ar    1  UNL1        0.0111
     39 C          65.9130   93.4054   10.4607 C.ar    1  UNL1        0.0585
     40 CL         66.6386   94.1946    9.4116 Cl      1  UNL1       -0.0822
     41 C          64.8850   92.3900   10.0582 C.ar    1  UNL1        0.0225
     42 C          64.1594   91.6008   11.1073 C.ar    1  UNL1        0.0546
     43 CL         63.1314   90.5854   10.7048 Cl      1  UNL1       -0.0825
@<TRIPOS>BOND
     1    21    22    1
     2    22    20    1
     3    20    19    1
     4    19    17    1
     5    17    16    1
     6    16    24    1
     7    24    25    1
     8    25    26    1
     9    25    27    1
    10    16     9    1
    11     9    10   ar
    12    10    11   ar
    13    11    12    1
    14    11    13   ar
    15    13    14   ar
    16    14    15   ar
    17    15     1    1
    18     1     2    1
    19     2     3    1
    20     3     4    1
    21     4     5   am
    22     5     6    2
    23     5    28    1
    24    28    35    1
    25    35    36    1
    26    36    37   ar
    27    37    38   ar
    28    38    39   ar
    29    39    40    1
    30    39    41   ar
    31    41    42   ar
    32    42    43    1
    33    28    29    1
    34    29    30    1
    35    30    31    1
    36    31    32    1
    37    32    33    1
    38    33    34    2
    39     4     7    1
    40     7     8    1
    41    15     9   ar
    42     8     1    1
    43    42    36   ar
    44    33    29   am
    45    22    23    1
    46    17    18    1
@<TRIPOS>MOLECULE
*****
 43 46 0 0 0
SMALL
GASTEIGER

@<TRIPOS>ATOM
      1 N          61.5978   86.3228    9.5484 N.pl3   1  UNL1       -0.3043
      2 C          62.7385   85.6450    8.8487 C.3     1  UNL1        0.1123
      3 C          63.5676   84.6289    9.5769 C.3     1  UNL1        0.1149
      4 N          63.2560   84.2906   11.0047 N.am    1  UNL1       -0.2747
      5 C          64.0851   83.2746   11.7328 C.2     1  UNL1        0.2442
      6 O          65.2258   82.5968   11.0332 O.2     1  UNL1       -0.2731
      7 C          62.1154   84.9684   11.7043 C.3     1  UNL1        0.1149
      8 C          61.2862   85.9845   10.9761 C.3     1  UNL1        0.1123
      9 C          60.7162   88.7552    9.3112 C.ar    1  UNL1        0.0076
     10 C          59.8871   89.7712    8.5830 C.ar    1  UNL1        0.0279
     11 C          59.1105   89.3708    7.3638 C.ar    1  UNL1        0.1400
     12 F          58.2814   90.3869    6.6356 F       1  UNL1       -0.2042
     13 C          59.1629   87.9545    6.8727 C.ar    1  UNL1        0.0309
     14 C          59.9920   86.9385    7.6009 C.ar    1  UNL1        0.0165
     15 C          60.7687   87.3389    8.8202 C.ar    1  UNL1        0.0453
     16 C          61.4929   89.1555   10.5305 C.3     1  UNL1        0.0781
     17 N          60.8346   89.1382   11.8782 N.3     1  UNL1       -0.2939
     18 H          60.8835   88.1775   12.2174 H       1  UNL1        0.1235
     19 C          59.4070   89.5758   12.0213 C.3     1  UNL1        0.0861
     20 C          58.5036   88.8805   12.9962 C.3     1  UNL1        0.0859
     21 C          56.1819   87.8010   13.4369 C.3     1  UNL1        0.0859
     22 N          57.0257   88.8296   12.7444 N.3     1  UNL1       -0.2952
     23 H          56.6511   89.7418   13.0050 H       1  UNL1        0.1233
     24 C          62.9277   89.5732   10.4020 C.3     1  UNL1        0.0203
     25 C          63.4494   90.7234   11.2113 C.3     1  UNL1        0.0017
     26 C          63.5227   90.6167   12.7058 C.3     1  UNL1        0.0001
     27 C          63.8978   91.9802   10.5262 C.3     1  UNL1        0.0001
     28 C          63.7736   82.9364   13.1605 C.3     1  UNL1        0.1564
     29 N          62.6492   81.9965   13.4805 N.am    1  UNL1       -0.2727
     30 C          61.5944   82.2071   14.5259 C.3     1  UNL1        0.0943
     31 C          60.6755   81.0217   14.5027 C.3     1  UNL1        0.0311
     32 C          61.1624   80.0784   13.4429 C.3     1  UNL1        0.0870
     33 C          62.3823   80.6808   12.8111 C.2     1  UNL1        0.2260
     34 O          63.1928   80.0742   11.7044 O.2     1  UNL1       -0.2749
     35 C          64.5864   83.5381   14.2684 C.3     1  UNL1        0.0564
     36 C          64.2413   84.8982   14.7984 C.ar    1  UNL1       -0.0094
     37 C          64.7605   86.1255   14.1095 C.ar    1  UNL1       -0.0025
     38 C          64.4154   87.4856   14.6394 C.ar    1  UNL1        0.0111
     39 C          63.5511   87.6186   15.8582 C.ar    1  UNL1        0.0585
     40 CL         63.2060   88.9788   16.3882 Cl      1  UNL1       -0.0822
     41 C          63.0319   86.3914   16.5470 C.ar    1  UNL1        0.0225
     42 C          63.3771   85.0312   16.0171 C.ar    1  UNL1        0.0546
     43 CL         62.8579   83.8041   16.7059 Cl      1  UNL1       -0.0825
@<TRIPOS>BOND
     1    21    22    1
     2    22    20    1
     3    20    19    1
     4    19    17    1
     5    17    16    1
     6    16    24    1
     7    24    25    1
     8    25    26    1
     9    25    27    1
    10    16     9    1
    11     9    10   ar
    12    10    11   ar
    13    11    12    1
    14    11    13   ar
    15    13    14   ar
    16    14    15   ar
    17    15     1    1
    18     1     2    1
    19     2     3    1
    20     3     4    1
    21     4     5   am
    22     5     6    2
    23     5    28    1
    24    28    35    1
    25    35    36    1
    26    36    37   ar
    27    37    38   ar
    28    38    39   ar
    29    39    40    1
    30    39    41   ar
    31    41    42   ar
    32    42    43    1
    33    28    29    1
    34    29    30    1
    35    30    31    1
    36    31    32    1
    37    32    33    1
    38    33    34    2
    39     4     7    1
    40     7     8    1
    41    15     9   ar
    42     8     1    1
    43    42    36   ar
    44    33    29   am
    45    22    23    1
    46    17    18    1
@<TRIPOS>MOLECULE
*****
 43 46 0 0 0
SMALL
GASTEIGER

@<TRIPOS>ATOM
      1 N          61.8819   89.4505   10.1775 N.pl3   1  UNL1       -0.3043
      2 C          62.6522   90.5563    9.5189 C.3     1  UNL1        0.1123
      3 C          63.6261   91.3710   10.3176 C.3     1  UNL1        0.1149
      4 N          63.8296   91.0798   11.7750 N.am    1  UNL1       -0.2747
      5 C          64.8035   91.8944   12.5737 C.2     1  UNL1        0.2442
      6 O          65.5738   93.0002   11.9151 O.2     1  UNL1       -0.2731
      7 C          63.0593   89.9739   12.4336 C.3     1  UNL1        0.1149
      8 C          62.0854   89.1593   11.6348 C.3     1  UNL1        0.1123
      9 C          60.9691   87.1378    9.4236 C.ar    1  UNL1        0.0076
     10 C          59.9952   86.3233    8.6248 C.ar    1  UNL1        0.0279
     11 C          58.9603   87.0068    7.7813 C.ar    1  UNL1        0.1400
     12 F          57.9864   86.1921    6.9825 F       1  UNL1       -0.2042
     13 C          58.8991   88.5048    7.7364 C.ar    1  UNL1        0.0309
     14 C          59.8730   89.3194    8.5352 C.ar    1  UNL1        0.0165
     15 C          60.9080   88.6359    9.3787 C.ar    1  UNL1        0.0453
     16 C          62.0041   86.4543   10.2672 C.3     1  UNL1        0.0781
     17 N          61.7410   86.2069   11.7230 N.3     1  UNL1       -0.2939
     18 H          61.5635   87.1166   12.1489 H       1  UNL1        0.1235
     19 C          62.7783   85.5284   12.5679 C.3     1  UNL1        0.0861
     20 C          62.6106   84.0869   12.9475 C.3     1  UNL1        0.0859
     21 C          63.6707   81.7585   13.4005 C.3     1  UNL1        0.0859
     22 N          63.8161   83.2425   13.2370 N.3     1  UNL1       -0.2952
     23 H          64.4711   83.3914   12.4695 H       1  UNL1        0.1233
     24 C          63.3021   86.0182    9.6549 C.3     1  UNL1        0.0203
     25 C          63.3806   84.7191    8.9092 C.3     1  UNL1        0.0017
     26 C          63.9111   83.4933    9.5920 C.3     1  UNL1        0.0001
     27 C          62.9287   84.6457    7.4808 C.3     1  UNL1        0.0001
     28 C          65.0070   91.6032   14.0310 C.3     1  UNL1        0.1564
     29 N          66.3232   91.9118   14.6808 N.am    1  UNL1       -0.2727
     30 C          67.6772   91.7228   14.0634 C.3     1  UNL1        0.0943
     31 C          68.7074   92.1578   15.0632 C.3     1  UNL1        0.0311
     32 C          67.9901   92.6157   16.2984 C.3     1  UNL1        0.0870
     33 C          66.5166   92.4637   16.0622 C.2     1  UNL1        0.2260
     34 O          65.4278   92.8038   17.0362 O.2     1  UNL1       -0.2749
     35 C          63.8943   91.0033   14.8385 C.3     1  UNL1        0.0564
     36 C          63.9206   89.5438   15.1837 C.ar    1  UNL1       -0.0094
     37 C          64.6834   88.5827   14.3208 C.ar    1  UNL1       -0.0025
     38 C          64.7097   87.1232   14.6660 C.ar    1  UNL1        0.0111
     39 C          63.9731   86.6248   15.8740 C.ar    1  UNL1        0.0585
     40 CL         63.9994   85.1653   16.2192 Cl      1  UNL1       -0.0822
     41 C          63.2104   87.5859   16.7368 C.ar    1  UNL1        0.0225
     42 C          63.1841   89.0454   16.3916 C.ar    1  UNL1        0.0546
     43 CL         62.4213   90.0065   17.2544 Cl      1  UNL1       -0.0825
@<TRIPOS>BOND
     1    21    22    1
     2    22    20    1
     3    20    19    1
     4    19    17    1
     5    17    16    1
     6    16    24    1
     7    24    25    1
     8    25    26    1
     9    25    27    1
    10    16     9    1
    11     9    10   ar
    12    10    11   ar
    13    11    12    1
    14    11    13   ar
    15    13    14   ar
    16    14    15   ar
    17    15     1    1
    18     1     2    1
    19     2     3    1
    20     3     4    1
    21     4     5   am
    22     5     6    2
    23     5    28    1
    24    28    35    1
    25    35    36    1
    26    36    37   ar
    27    37    38   ar
    28    38    39   ar
    29    39    40    1
    30    39    41   ar
    31    41    42   ar
    32    42    43    1
    33    28    29    1
    34    29    30    1
    35    30    31    1
    36    31    32    1
    37    32    33    1
    38    33    34    2
    39     4     7    1
    40     7     8    1
    41    15     9   ar
    42     8     1    1
    43    42    36   ar
    44    33    29   am
    45    22    23    1
    46    17    18    1
@<TRIPOS>MOLECULE
*****
 43 46 0 0 0
SMALL
GASTEIGER

@<TRIPOS>ATOM
      1 N          62.5704   88.1712   10.0703 N.pl3   1  UNL1       -0.3043
      2 C          62.7789   89.5807    9.6013 C.3     1  UNL1        0.1123
      3 C          63.2864   90.6212   10.5552 C.3     1  UNL1        0.1149
      4 N          63.5854   90.2522   11.9781 N.am    1  UNL1       -0.2747
      5 C          64.0929   91.2926   12.9319 C.2     1  UNL1        0.2442
      6 O          64.3015   92.7021   12.4630 O.2     1  UNL1       -0.2731
      7 C          63.3769   88.8427   12.4470 C.3     1  UNL1        0.1149
      8 C          62.8694   87.8022   11.4931 C.3     1  UNL1        0.1123
      9 C          60.6687   87.2288    8.5719 C.ar    1  UNL1        0.0076
     10 C          60.1612   86.1883    7.6180 C.ar    1  UNL1        0.0279
     11 C          61.0480   85.0499    7.2086 C.ar    1  UNL1        0.1400
     12 F          60.5404   84.0094    6.2547 F       1  UNL1       -0.2042
     13 C          62.4422   84.9519    7.7531 C.ar    1  UNL1        0.0309
     14 C          62.9496   85.9923    8.7069 C.ar    1  UNL1        0.0165
     15 C          62.0629   87.1308    9.1164 C.ar    1  UNL1        0.0453
     16 C          59.7819   88.3672    8.9813 C.3     1  UNL1        0.0781
     17 N          59.6177   89.5527    8.0771 N.3     1  UNL1       -0.2939
     18 H          58.8843   90.1335    8.4835 H       1  UNL1        0.1235
     19 C          59.2611   89.3516    6.6341 C.3     1  UNL1        0.0861
     20 C          59.5441   90.4330    5.6338 C.3     1  UNL1        0.0859
     21 C          57.3492   91.5895    4.8626 C.3     1  UNL1        0.0859
     22 N          58.6676   91.6488    5.5756 N.3     1  UNL1       -0.2952
     23 H          58.4691   91.9152    6.5399 H       1  UNL1        0.1233
     24 C          59.0593   88.3201   10.2950 C.3     1  UNL1        0.0203
     25 C          59.3665   89.3343   11.3566 C.3     1  UNL1        0.0017
     26 C          59.1655   88.9905   12.8028 C.3     1  UNL1        0.0001
     27 C          59.8746   90.6922   10.9721 C.3     1  UNL1        0.0001
     28 C          64.3919   90.9236   14.3547 C.3     1  UNL1        0.1564
     29 N          65.6532   91.4082   15.0061 N.am    1  UNL1       -0.2727
     30 C          67.0500   91.1500   14.5241 C.3     1  UNL1        0.0943
     31 C          67.9992   91.8184   15.4739 C.3     1  UNL1        0.0311
     32 C          67.1891   92.4898   16.5430 C.3     1  UNL1        0.0870
     33 C          65.7391   92.2364   16.2539 C.2     1  UNL1        0.2260
     34 O          64.5790   92.7251   17.0693 O.2     1  UNL1       -0.2749
     35 C          63.4296   90.0698   15.1262 C.3     1  UNL1        0.0564
     36 C          63.7128   88.6099   15.3220 C.ar    1  UNL1       -0.0094
     37 C          64.6540   87.8977   14.3962 C.ar    1  UNL1       -0.0025
     38 C          64.9372   86.4377   14.5921 C.ar    1  UNL1        0.0111
     39 C          64.2792   85.6900   15.7137 C.ar    1  UNL1        0.0585
     40 CL         64.5624   84.2300   15.9095 Cl      1  UNL1       -0.0822
     41 C          63.3381   86.4022   16.6395 C.ar    1  UNL1        0.0225
     42 C          63.0549   87.8621   16.4436 C.ar    1  UNL1        0.0546
     43 CL         62.1138   88.5743   17.3694 Cl      1  UNL1       -0.0825
@<TRIPOS>BOND
     1    21    22    1
     2    22    20    1
     3    20    19    1
     4    19    17    1
     5    17    16    1
     6    16    24    1
     7    24    25    1
     8    25    26    1
     9    25    27    1
    10    16     9    1
    11     9    10   ar
    12    10    11   ar
    13    11    12    1
    14    11    13   ar
    15    13    14   ar
    16    14    15   ar
    17    15     1    1
    18     1     2    1
    19     2     3    1
    20     3     4    1
    21     4     5   am
    22     5     6    2
    23     5    28    1
    24    28    35    1
    25    35    36    1
    26    36    37   ar
    27    37    38   ar
    28    38    39   ar
    29    39    40    1
    30    39    41   ar
    31    41    42   ar
    32    42    43    1
    33    28    29    1
    34    29    30    1
    35    30    31    1
    36    31    32    1
    37    32    33    1
    38    33    34    2
    39     4     7    1
    40     7     8    1
    41    15     9   ar
    42     8     1    1
    43    42    36   ar
    44    33    29   am
    45    22    23    1
    46    17    18    1
@<TRIPOS>MOLECULE
*****
 43 46 0 0 0
SMALL
GASTEIGER

@<TRIPOS>ATOM
      1 N          64.2620   90.9959   12.6943 N.pl3   1  UNL1       -0.3043
      2 C          63.3839   91.7227   11.7193 C.3     1  UNL1        0.1123
      3 C          62.4396   90.9543   10.8431 C.3     1  UNL1        0.1149
      4 N          62.3735   89.4590   10.9417 N.am    1  UNL1       -0.2747
      5 C          61.4292   88.6906   10.0655 C.2     1  UNL1        0.2442
      6 O          60.5511   89.4174    9.0905 O.2     1  UNL1       -0.2731
      7 C          63.2517   88.7321   11.9167 C.3     1  UNL1        0.1149
      8 C          64.1959   89.5006   12.7930 C.3     1  UNL1        0.1123
      9 C          66.1512   92.7590   12.9640 C.ar    1  UNL1        0.0076
     10 C          67.0954   93.5274   13.8403 C.ar    1  UNL1        0.0279
     11 C          67.0948   93.3013   15.3231 C.ar    1  UNL1        0.1400
     12 F          68.0390   94.0698   16.1994 F       1  UNL1       -0.2042
     13 C          66.1499   92.3067   15.9297 C.ar    1  UNL1        0.0309
     14 C          65.2056   91.5383   15.0534 C.ar    1  UNL1        0.0165
     15 C          65.2063   91.7644   13.5706 C.ar    1  UNL1        0.0453
     16 C          66.1519   92.9851   11.4811 C.3     1  UNL1        0.0781
     17 N          67.0911   92.2106   10.6048 N.3     1  UNL1       -0.2939
     18 H          67.4846   91.4661   11.1804 H       1  UNL1        0.1235
     19 C          68.2460   92.9045    9.9455 C.3     1  UNL1        0.0861
     20 C          68.0186   93.7414    8.7216 C.3     1  UNL1        0.0859
     21 C          67.3494   96.0729    7.7907 C.3     1  UNL1        0.0859
     22 N          68.0526   95.2379    8.8195 N.3     1  UNL1       -0.2952
     23 H          67.6491   95.4831    9.7236 H       1  UNL1        0.1233
     24 C          65.2134   93.9857   10.8746 C.3     1  UNL1        0.0203
     25 C          65.5393   95.4488   10.9293 C.3     1  UNL1        0.0017
     26 C          66.5326   95.9590   11.9309 C.3     1  UNL1        0.0001
     27 C          64.8720   96.4018    9.9825 C.3     1  UNL1        0.0001
     28 C          61.3632   87.1953   10.1642 C.3     1  UNL1        0.1564
     29 N          61.2407   86.3663    8.9201 N.am    1  UNL1       -0.2727
     30 C          59.9633   86.0169    8.2156 C.3     1  UNL1        0.0943
     31 C          60.3072   85.1757    7.0222 C.3     1  UNL1        0.0311
     32 C          61.7971   85.0052    6.9892 C.3     1  UNL1        0.0870
     33 C          62.3741   85.7410    8.1621 C.2     1  UNL1        0.2260
     34 O          63.8288   85.8350    8.5151 O.2     1  UNL1       -0.2749
     35 C          61.4196   86.5291   11.5069 C.3     1  UNL1        0.0564
     36 C          62.2731   85.3115   11.7048 C.ar    1  UNL1       -0.0094
     37 C          62.1469   84.1468   10.7678 C.ar    1  UNL1       -0.0025
     38 C          63.0004   82.9293   10.9657 C.ar    1  UNL1        0.0111
     39 C          63.9800   82.8764   12.1004 C.ar    1  UNL1        0.0585
     40 CL         64.8335   81.6589   12.2982 Cl      1  UNL1       -0.0822
     41 C          64.1062   84.0410   13.0372 C.ar    1  UNL1        0.0225
     42 C          63.2527   85.2586   12.8394 C.ar    1  UNL1        0.0546
     43 CL         63.3788   86.4232   13.7763 Cl      1  UNL1       -0.0825
@<TRIPOS>BOND
     1    21    22    1
     2    22    20    1
     3    20    19    1
     4    19    17    1
     5    17    16    1
     6    16    24    1
     7    24    25    1
     8    25    26    1
     9    25    27    1
    10    16     9    1
    11     9    10   ar
    12    10    11   ar
    13    11    12    1
    14    11    13   ar
    15    13    14   ar
    16    14    15   ar
    17    15     1    1
    18     1     2    1
    19     2     3    1
    20     3     4    1
    21     4     5   am
    22     5     6    2
    23     5    28    1
    24    28    35    1
    25    35    36    1
    26    36    37   ar
    27    37    38   ar
    28    38    39   ar
    29    39    40    1
    30    39    41   ar
    31    41    42   ar
    32    42    43    1
    33    28    29    1
    34    29    30    1
    35    30    31    1
    36    31    32    1
    37    32    33    1
    38    33    34    2
    39     4     7    1
    40     7     8    1
    41    15     9   ar
    42     8     1    1
    43    42    36   ar
    44    33    29   am
    45    22    23    1
    46    17    18    1
@<TRIPOS>MOLECULE
*****
 43 46 0 0 0
SMALL
GASTEIGER

@<TRIPOS>ATOM
      1 N          63.5017   91.1560   11.1691 N.pl3   1  UNL1       -0.3043
      2 C          62.0265   91.3696   11.3368 C.3     1  UNL1        0.1123
      3 C          61.0879   90.2010   11.2768 C.3     1  UNL1        0.1149
      4 N          61.6246   88.8189   11.0491 N.am    1  UNL1       -0.2747
      5 C          60.6861   87.6504   10.9891 C.2     1  UNL1        0.2442
      6 O          59.2108   87.8639   11.1568 O.2     1  UNL1       -0.2731
      7 C          63.0998   88.6054   10.8815 C.3     1  UNL1        0.1149
      8 C          64.0384   89.7740   10.9415 C.3     1  UNL1        0.1123
      9 C          65.2058   92.6079   12.4876 C.ar    1  UNL1        0.0076
     10 C          66.1443   93.7765   12.5475 C.ar    1  UNL1        0.0279
     11 C          66.3172   94.6618   11.3490 C.ar    1  UNL1        0.1400
     12 F          67.2558   95.8304   11.4090 F       1  UNL1       -0.2042
     13 C          65.5517   94.3785   10.0906 C.ar    1  UNL1        0.0309
     14 C          64.6132   93.2100   10.0307 C.ar    1  UNL1        0.0165
     15 C          64.4402   92.3247   11.2291 C.ar    1  UNL1        0.0453
     16 C          65.0328   91.7226   13.6860 C.3     1  UNL1        0.0781
     17 N          63.6596   91.4468   14.2228 N.3     1  UNL1       -0.2939
     18 H          63.5553   92.0090   15.0675 H       1  UNL1        0.1235
     19 C          63.2626   90.0459   14.5832 C.3     1  UNL1        0.0861
     20 C          63.3996   89.5682   15.9985 C.3     1  UNL1        0.0859
     21 C          62.9073   87.4917   17.4804 C.3     1  UNL1        0.0859
     22 N          62.4290   88.5657   16.5490 N.3     1  UNL1       -0.2952
     23 H          61.7137   89.0928   17.0499 H       1  UNL1        0.1233
     24 C          66.2331   91.1131   14.3477 C.3     1  UNL1        0.0203
     25 C          67.0690   91.9321   15.2860 C.3     1  UNL1        0.0017
     26 C          66.4239   92.6457   16.4369 C.3     1  UNL1        0.0001
     27 C          68.5501   92.0376   15.0733 C.3     1  UNL1        0.0001
     28 C          61.2227   86.2683   10.7615 C.3     1  UNL1        0.1564
     29 N          61.6137   85.8337    9.3801 N.am    1  UNL1       -0.2727
     30 C          62.9352   85.2466    8.9814 C.3     1  UNL1        0.0943
     31 C          62.8901   84.9599    7.5097 C.3     1  UNL1        0.0311
     32 C          61.5407   85.3699    6.9988 C.3     1  UNL1        0.0870
     33 C          60.7518   85.9099    8.1547 C.2     1  UNL1        0.2260
     34 O          59.3477   86.4340    8.0957 O.2     1  UNL1       -0.2749
     35 C          61.3685   85.3208   11.9152 C.3     1  UNL1        0.0564
     36 C          62.6746   85.2250   12.6466 C.ar    1  UNL1       -0.0094
     37 C          63.1583   86.3803   13.4722 C.ar    1  UNL1       -0.0025
     38 C          64.4644   86.2845   14.2036 C.ar    1  UNL1        0.0111
     39 C          65.2867   85.0334   14.1095 C.ar    1  UNL1        0.0585
     40 CL         66.5928   84.9376   14.8409 Cl      1  UNL1       -0.0822
     41 C          64.8029   83.8783   13.2840 C.ar    1  UNL1        0.0225
     42 C          63.4969   83.9741   12.5525 C.ar    1  UNL1        0.0546
     43 CL         63.0131   82.8189   11.7270 Cl      1  UNL1       -0.0825
@<TRIPOS>BOND
     1    21    22    1
     2    22    20    1
     3    20    19    1
     4    19    17    1
     5    17    16    1
     6    16    24    1
     7    24    25    1
     8    25    26    1
     9    25    27    1
    10    16     9    1
    11     9    10   ar
    12    10    11   ar
    13    11    12    1
    14    11    13   ar
    15    13    14   ar
    16    14    15   ar
    17    15     1    1
    18     1     2    1
    19     2     3    1
    20     3     4    1
    21     4     5   am
    22     5     6    2
    23     5    28    1
    24    28    35    1
    25    35    36    1
    26    36    37   ar
    27    37    38   ar
    28    38    39   ar
    29    39    40    1
    30    39    41   ar
    31    41    42   ar
    32    42    43    1
    33    28    29    1
    34    29    30    1
    35    30    31    1
    36    31    32    1
    37    32    33    1
    38    33    34    2
    39     4     7    1
    40     7     8    1
    41    15     9   ar
    42     8     1    1
    43    42    36   ar
    44    33    29   am
    45    22    23    1
    46    17    18    1
@<TRIPOS>MOLECULE
*****
 43 46 0 0 0
SMALL
GASTEIGER

@<TRIPOS>ATOM
      1 N          63.4631   87.0045   13.3816 N.pl3   1  UNL1       -0.3043
      2 C          62.7585   87.7547   12.2904 C.3     1  UNL1        0.1123
      3 C          63.1143   89.1853   12.0132 C.3     1  UNL1        0.1149
      4 N          64.1747   89.8657   12.8272 N.am    1  UNL1       -0.2747
      5 C          64.5305   91.2963   12.5501 C.2     1  UNL1        0.2442
      6 O          63.8259   92.0465   11.4589 O.2     1  UNL1       -0.2731
      7 C          64.8794   89.1155   13.9184 C.3     1  UNL1        0.1149
      8 C          64.5235   87.6849   14.1956 C.3     1  UNL1        0.1123
      9 C          62.4992   84.7294   12.5785 C.ar    1  UNL1        0.0076
     10 C          62.1434   83.2989   12.8557 C.ar    1  UNL1        0.0279
     11 C          62.3957   82.7128   14.2132 C.ar    1  UNL1        0.1400
     12 F          62.0399   81.2821   14.4903 F       1  UNL1       -0.2042
     13 C          63.0038   83.5572   15.2935 C.ar    1  UNL1        0.0309
     14 C          63.3596   84.9878   15.0163 C.ar    1  UNL1        0.0165
     15 C          63.1073   85.5739   13.6588 C.ar    1  UNL1        0.0453
     16 C          62.2469   85.3156   11.2210 C.3     1  UNL1        0.0781
     17 N          60.9017   85.8909   10.8907 N.3     1  UNL1       -0.2939
     18 H          60.2699   85.1021   10.7524 H       1  UNL1        0.1235
     19 C          60.7416   86.7879    9.6991 C.3     1  UNL1        0.0861
     20 C          60.0054   86.3000    8.4866 C.3     1  UNL1        0.0859
     21 C          59.1424   88.4745    7.3567 C.3     1  UNL1        0.0859
     22 N          58.8775   87.1090    7.9180 N.3     1  UNL1       -0.2952
     23 H          58.4684   86.5555    7.1652 H       1  UNL1        0.1233
     24 C          63.3399   85.3263   10.1937 C.3     1  UNL1        0.0203
     25 C          63.4781   84.1821    9.2336 C.3     1  UNL1        0.0017
     26 C          63.0305   84.3391    7.8105 C.3     1  UNL1        0.0001
     27 C          64.0638   82.8811    9.6965 C.3     1  UNL1        0.0001
     28 C          65.5909   91.9766   13.3641 C.3     1  UNL1        0.1564
     29 N          65.4063   92.1489   14.8427 N.am    1  UNL1       -0.2727
     30 C          64.1690   91.8138   15.6217 C.3     1  UNL1        0.0943
     31 C          64.4246   92.1443   17.0623 C.3     1  UNL1        0.0311
     32 C          65.8198   92.6836   17.1737 C.3     1  UNL1        0.0870
     33 C          66.4266   92.6864   15.8019 C.2     1  UNL1        0.2260
     34 O          67.8106   93.1461   15.4509 O.2     1  UNL1       -0.2749
     35 C          66.8360   92.4848   12.6995 C.3     1  UNL1        0.0564
     36 C          66.7396   93.5164   11.6149 C.ar    1  UNL1       -0.0094
     37 C          66.0925   94.8405   11.8947 C.ar    1  UNL1       -0.0025
     38 C          65.9961   95.8722   10.8101 C.ar    1  UNL1        0.0111
     39 C          66.5467   95.5798    9.4457 C.ar    1  UNL1        0.0585
     40 CL         66.4503   96.6115    8.3611 Cl      1  UNL1       -0.0822
     41 C          67.1937   94.2558    9.1660 C.ar    1  UNL1        0.0225
     42 C          67.2901   93.2241   10.2506 C.ar    1  UNL1        0.0546
     43 CL         67.9371   91.9001    9.9709 Cl      1  UNL1       -0.0825
@<TRIPOS>BOND
     1    21    22    1
     2    22    20    1
     3    20    19    1
     4    19    17    1
     5    17    16    1
     6    16    24    1
     7    24    25    1
     8    25    26    1
     9    25    27    1
    10    16     9    1
    11     9    10   ar
    12    10    11   ar
    13    11    12    1
    14    11    13   ar
    15    13    14   ar
    16    14    15   ar
    17    15     1    1
    18     1     2    1
    19     2     3    1
    20     3     4    1
    21     4     5   am
    22     5     6    2
    23     5    28    1
    24    28    35    1
    25    35    36    1
    26    36    37   ar
    27    37    38   ar
    28    38    39   ar
    29    39    40    1
    30    39    41   ar
    31    41    42   ar
    32    42    43    1
    33    28    29    1
    34    29    30    1
    35    30    31    1
    36    31    32    1
    37    32    33    1
    38    33    34    2
    39     4     7    1
    40     7     8    1
    41    15     9   ar
    42     8     1    1
    43    42    36   ar
    44    33    29   am
    45    22    23    1
    46    17    18    1
