@<TRIPOS>MOLECULE
*****
 45 48 0 0 0
SMALL
GASTEIGER

@<TRIPOS>ATOM
      1 N          63.4314   85.5320   13.8607 N.pl3   1  UNL1       -0.3043
      2 C          63.9868   86.6588   13.0410 C.3     1  UNL1        0.1123
      3 C          64.1493   88.0200   13.6499 C.3     1  UNL1        0.1149
      4 N          63.7566   88.2544   15.0785 N.am    1  UNL1       -0.2747
      5 C          63.9192   89.6155   15.6873 C.2     1  UNL1        0.2442
      6 O          63.5264   89.8499   17.1159 O.2     1  UNL1       -0.2731
      7 C          63.2013   87.1276   15.8982 C.3     1  UNL1        0.1149
      8 C          63.0387   85.7663   15.2892 C.3     1  UNL1        0.1123
      9 C          62.6996   84.0299   11.8712 C.ar    1  UNL1        0.0053
     10 C          62.5371   82.6687   11.2623 C.ar    1  UNL1        0.0021
     11 C          62.9438   81.4484   12.0340 C.ar    1  UNL1        0.0712
     12 C          63.5130   81.5893   13.4146 C.ar    1  UNL1        0.0051
     13 C          63.6755   82.9505   14.0235 C.ar    1  UNL1        0.0142
     14 C          63.2689   84.1708   13.2517 C.ar    1  UNL1        0.0451
     15 C          62.7812   80.0872   11.4251 C.3     1  UNL1        0.4186
     16 F          62.6186   78.7261   10.8161 F       1  UNL1       -0.1659
     17 F          63.1171   80.6506   10.0761 F       1  UNL1       -0.1659
     18 F          62.4453   79.5238   12.7740 F       1  UNL1       -0.1659
     19 C          62.2929   85.2501   11.0994 C.3     1  UNL1        0.0783
     20 N          61.2411   86.1682   11.6477 N.3     1  UNL1       -0.2904
     21 H          61.2295   86.0324   12.6585 H       1  UNL1        0.1238
     22 C          61.3378   87.6462   11.4104 C.3     1  UNL1        0.1112
     23 C          60.0907   88.4604   11.2320 C.2     1  UNL1        0.0663
     24 O          59.1629   88.6750   12.3908 O.co2   1  UNL1       -0.5477
     25 O          59.7714   89.0599    9.8946 O.co2   1  UNL1       -0.5477
     26 C          62.9382   85.5523    9.7795 C.3     1  UNL1        0.0203
     27 C          60.7411   85.9915    8.4641 C.3     1  UNL1        0.0001
     28 C          62.1396   85.4513    8.5137 C.3     1  UNL1        0.0017
     29 C          62.7396   84.8101    7.2976 C.3     1  UNL1        0.0001
     30 C          64.4745   90.7424   14.8677 C.3     1  UNL1        0.1564
     31 N          65.7480   91.4164   15.2846 N.am    1  UNL1       -0.2727
     32 C          67.1082   91.1682   14.7030 C.3     1  UNL1        0.0943
     33 C          68.0858   92.0554   15.4152 C.3     1  UNL1        0.0311
     34 C          67.3297   92.8519   16.4370 C.3     1  UNL1        0.0870
     35 C          65.8849   92.4569   16.3562 C.2     1  UNL1        0.2260
     36 O          64.7723   93.0061   17.1992 O.2     1  UNL1       -0.2749
     37 C          63.7563   91.1952   13.6311 C.3     1  UNL1        0.0564
     38 C          64.5017   91.9328   12.5586 C.ar    1  UNL1       -0.0094
     39 C          65.5280   92.9617   12.9305 C.ar    1  UNL1       -0.0025
     40 C          66.2733   93.6994   11.8580 C.ar    1  UNL1        0.0111
     41 C          65.9923   93.4082   10.4135 C.ar    1  UNL1        0.0585
     42 CL         66.7377   94.1459    9.3410 Cl      1  UNL1       -0.0822
     43 C          64.9661   92.3794   10.0417 C.ar    1  UNL1        0.0225
     44 C          64.2208   91.6417   11.1142 C.ar    1  UNL1        0.0546
     45 CL         63.7260   91.1444   10.7356 Cl      1  UNL1       -0.0825
@<TRIPOS>UNITY_ATOM_ATTR
24 1
charge -1
@<TRIPOS>BOND
     1    27    28    1
     2    28    29    1
     3    28    26    1
     4    19    26    1
     5    19    20    1
     6    20    22    1
     7    22    23    1
     8    23    24   ar
     9    23    25   ar
    10    19     9    1
    11     9    10   ar
    12    10    11   ar
    13    11    15    1
    14    15    16    1
    15    15    17    1
    16    15    18    1
    17    11    12   ar
    18    12    13   ar
    19    13    14   ar
    20    14     1    1
    21     1     2    1
    22     2     3    1
    23     3     4    1
    24     4     5   am
    25     5     6    2
    26     5    30    1
    27    30    37    1
    28    37    38    1
    29    38    39   ar
    30    39    40   ar
    31    40    41   ar
    32    41    42    1
    33    41    43   ar
    34    43    44   ar
    35    44    45    1
    36    30    31    1
    37    31    32    1
    38    32    33    1
    39    33    34    1
    40    34    35    1
    41    35    36    2
    42     4     7    1
    43     7     8    1
    44    14     9   ar
    45     8     1    1
    46    44    38   ar
    47    35    31   am
    48    20    21    1
@<TRIPOS>MOLECULE
*****
 45 48 0 0 0
SMALL
GASTEIGER

@<TRIPOS>ATOM
      1 N          61.6976   86.2053    9.5010 N.pl3   1  UNL1       -0.3043
      2 C          61.2980   85.8921   10.9125 C.3     1  UNL1        0.1123
      3 C          62.1053   84.9217   11.7227 C.3     1  UNL1        0.1149
      4 N          63.3123   84.2645   11.1215 N.am    1  UNL1       -0.2747
      5 C          64.1196   83.2941   11.9318 C.2     1  UNL1        0.2442
      6 O          65.3265   82.6370   11.3305 O.2     1  UNL1       -0.2731
      7 C          63.7119   84.5777    9.7101 C.3     1  UNL1        0.1149
      8 C          62.9045   85.5482    8.8998 C.3     1  UNL1        0.1123
      9 C          60.8439   88.6231    9.0819 C.ar    1  UNL1        0.0053
     10 C          60.0365   89.5935    8.2717 C.ar    1  UNL1        0.0021
     11 C          59.2754   89.1165    7.0703 C.ar    1  UNL1        0.0712
     12 C          59.3217   87.6692    6.6792 C.ar    1  UNL1        0.0051
     13 C          60.1291   86.6988    7.4895 C.ar    1  UNL1        0.0142
     14 C          60.8902   87.1758    8.6908 C.ar    1  UNL1        0.0451
     15 C          58.4680   90.0869    6.2601 C.3     1  UNL1        0.4186
     16 F          57.6607   91.0573    5.4499 F       1  UNL1       -0.1659
     17 F          59.7317   90.7318    5.7732 F       1  UNL1       -0.1659
     18 F          57.2043   89.4421    6.7470 F       1  UNL1       -0.1659
     19 C          61.6050   89.1001   10.2833 C.3     1  UNL1        0.0783
     20 N          62.9711   89.6968   10.1173 N.3     1  UNL1       -0.2904
     21 H          63.2057   89.6246    9.1273 H       1  UNL1        0.1238
     22 C          63.2216   91.1202   10.5189 C.3     1  UNL1        0.1112
     23 C          64.0238   91.4221   11.7500 C.2     1  UNL1        0.0663
     24 O          65.2510   92.2791   11.6540 O.co2   1  UNL1       -0.5477
     25 O          63.5986   90.8669   13.0770 O.co2   1  UNL1       -0.5477
     26 C          60.9999   88.9803   11.6506 C.3     1  UNL1        0.0203
     27 C          58.6286   88.8200   12.7001 C.3     1  UNL1        0.0001
     28 C          59.6608   89.5937   11.9345 C.3     1  UNL1        0.0017
     29 C          59.3540   90.9808   11.4530 C.3     1  UNL1        0.0001
     30 C          63.7201   82.9809   13.3432 C.3     1  UNL1        0.1564
     31 N          62.5659   82.0606   13.6093 N.am    1  UNL1       -0.2727
     32 C          61.4729   82.2841   14.6120 C.3     1  UNL1        0.0943
     33 C          60.5336   81.1168   14.5419 C.3     1  UNL1        0.0311
     34 C          61.0461   80.1717   13.4957 C.3     1  UNL1        0.0870
     35 C          62.3021   80.7550   12.9194 C.2     1  UNL1        0.2260
     36 O          63.1461   80.1407   11.8423 O.2     1  UNL1       -0.2749
     37 C          64.4747   83.5880   14.4886 C.3     1  UNL1        0.0564
     38 C          64.1446   84.9757   14.9527 C.ar    1  UNL1       -0.0094
     39 C          64.7204   86.1623   14.2381 C.ar    1  UNL1       -0.0025
     40 C          64.3903   87.5500   14.7022 C.ar    1  UNL1        0.0111
     41 C          63.4845   87.7511   15.8809 C.ar    1  UNL1        0.0585
     42 CL         63.1545   89.1388   16.3449 Cl      1  UNL1       -0.0822
     43 C          62.9089   86.5645   16.5954 C.ar    1  UNL1        0.0225
     44 C          63.2389   85.1768   16.1313 C.ar    1  UNL1        0.0546
     45 CL         62.8503   84.6829   16.6217 Cl      1  UNL1       -0.0825
@<TRIPOS>UNITY_ATOM_ATTR
24 1
charge -1
@<TRIPOS>BOND
     1    27    28    1
     2    28    29    1
     3    28    26    1
     4    19    26    1
     5    19    20    1
     6    20    22    1
     7    22    23    1
     8    23    24   ar
     9    23    25   ar
    10    19     9    1
    11     9    10   ar
    12    10    11   ar
    13    11    15    1
    14    15    16    1
    15    15    17    1
    16    15    18    1
    17    11    12   ar
    18    12    13   ar
    19    13    14   ar
    20    14     1    1
    21     1     2    1
    22     2     3    1
    23     3     4    1
    24     4     5   am
    25     5     6    2
    26     5    30    1
    27    30    37    1
    28    37    38    1
    29    38    39   ar
    30    39    40   ar
    31    40    41   ar
    32    41    42    1
    33    41    43   ar
    34    43    44   ar
    35    44    45    1
    36    30    31    1
    37    31    32    1
    38    32    33    1
    39    33    34    1
    40    34    35    1
    41    35    36    2
    42     4     7    1
    43     7     8    1
    44    14     9   ar
    45     8     1    1
    46    44    38   ar
    47    35    31   am
    48    20    21    1
@<TRIPOS>MOLECULE
*****
 45 48 0 0 0
SMALL
GASTEIGER

@<TRIPOS>ATOM
      1 N          64.1691   90.8302   12.5156 N.pl3   1  UNL1       -0.3043
      2 C          64.1972   89.3308   12.5489 C.3     1  UNL1        0.1123
      3 C          63.2330   88.5439   11.7117 C.3     1  UNL1        0.1149
      4 N          62.2407   89.2563   10.8411 N.am    1  UNL1       -0.2747
      5 C          61.2765   88.4694   10.0038 C.2     1  UNL1        0.2442
      6 O          60.2843   89.1819    9.1333 O.2     1  UNL1       -0.2731
      7 C          62.2126   90.7557   10.8078 C.3     1  UNL1        0.1149
      8 C          63.1769   91.5426   11.6451 C.3     1  UNL1        0.1123
      9 C          65.9631   92.6978   12.7254 C.ar    1  UNL1        0.0053
     10 C          66.9273   93.4846   13.5627 C.ar    1  UNL1        0.0021
     11 C          67.0618   93.1908   15.0275 C.ar    1  UNL1        0.0712
     12 C          66.2321   92.1102   15.6550 C.ar    1  UNL1        0.0051
     13 C          65.2679   91.3234   14.8177 C.ar    1  UNL1        0.0142
     14 C          65.1334   91.6171   13.3529 C.ar    1  UNL1        0.0451
     15 C          68.0261   93.9778   15.8648 C.3     1  UNL1        0.4186
     16 F          68.9903   94.7647   16.7020 F       1  UNL1       -0.1659
     17 F          67.8310   95.1670   14.9717 F       1  UNL1       -0.1659
     18 F          68.2212   92.7886   16.7579 F       1  UNL1       -0.1659
     19 C          65.8286   92.9915   11.2606 C.3     1  UNL1        0.0783
     20 N          65.0484   94.1886   10.8043 N.3     1  UNL1       -0.2904
     21 H          64.2744   94.3025   11.4588 H       1  UNL1        0.1238
     22 C          65.7213   95.5245   10.6927 C.3     1  UNL1        0.1112
     23 C          66.6518   95.8023    9.5494 C.2     1  UNL1        0.0663
     24 O          68.0954   95.4060    9.6440 O.co2   1  UNL1       -0.5477
     25 O          66.1387   96.4763    8.3115 O.co2   1  UNL1       -0.5477
     26 C          66.4744   92.0883   10.2522 C.3     1  UNL1        0.0203
     27 C          68.6759   92.3203    8.8922 C.3     1  UNL1        0.0001
     28 C          67.9696   91.9973   10.1755 C.3     1  UNL1        0.0017
     29 C          68.7586   91.5833   11.3822 C.3     1  UNL1        0.0001
     30 C          61.3045   86.9700   10.0371 C.3     1  UNL1        0.1564
     31 N          61.4519   86.1942    8.7619 N.am    1  UNL1       -0.2727
     32 C          62.7068   85.5357    8.2704 C.3     1  UNL1        0.0943
     33 C          62.4007   84.8751    6.9590 C.3     1  UNL1        0.0311
     34 C          60.9565   85.1253    6.6399 C.3     1  UNL1        0.0870
     35 C          60.3701   85.9405    7.7542 C.2     1  UNL1        0.2260
     36 O          58.9511   86.4183    7.8447 O.2     1  UNL1       -0.2749
     37 C          61.1852   86.2465   11.3456 C.3     1  UNL1        0.0564
     38 C          62.1208   85.1191   11.6673 C.ar    1  UNL1       -0.0094
     39 C          62.0779   83.8554   10.8602 C.ar    1  UNL1       -0.0025
     40 C          63.0135   82.7279   11.1818 C.ar    1  UNL1        0.0111
     41 C          63.9919   82.8641   12.3106 C.ar    1  UNL1        0.0585
     42 CL         64.9275   81.7366   12.6323 Cl      1  UNL1       -0.0822
     43 C          64.0348   84.1277   13.1177 C.ar    1  UNL1        0.0225
     44 C          63.0992   85.2552   12.7960 C.ar    1  UNL1        0.0546
     45 CL         63.2634   85.8332   13.3199 Cl      1  UNL1       -0.0825
@<TRIPOS>UNITY_ATOM_ATTR
24 1
charge -1
@<TRIPOS>BOND
     1    27    28    1
     2    28    29    1
     3    28    26    1
     4    19    26    1
     5    19    20    1
     6    20    22    1
     7    22    23    1
     8    23    24   ar
     9    23    25   ar
    10    19     9    1
    11     9    10   ar
    12    10    11   ar
    13    11    15    1
    14    15    16    1
    15    15    17    1
    16    15    18    1
    17    11    12   ar
    18    12    13   ar
    19    13    14   ar
    20    14     1    1
    21     1     2    1
    22     2     3    1
    23     3     4    1
    24     4     5   am
    25     5     6    2
    26     5    30    1
    27    30    37    1
    28    37    38    1
    29    38    39   ar
    30    39    40   ar
    31    40    41   ar
    32    41    42    1
    33    41    43   ar
    34    43    44   ar
    35    44    45    1
    36    30    31    1
    37    31    32    1
    38    32    33    1
    39    33    34    1
    40    34    35    1
    41    35    36    2
    42     4     7    1
    43     7     8    1
    44    14     9   ar
    45     8     1    1
    46    44    38   ar
    47    35    31   am
    48    20    21    1
@<TRIPOS>MOLECULE
*****
 45 48 0 0 0
SMALL
GASTEIGER

@<TRIPOS>ATOM
      1 N          63.6201   86.7055   14.7618 N.pl3   1  UNL1       -0.3043
      2 C          64.5321   87.4720   13.8505 C.3     1  UNL1        0.1123
      3 C          64.7842   88.9303   14.0949 C.3     1  UNL1        0.1149
      4 N          64.1242   89.6222   15.2508 N.am    1  UNL1       -0.2747
      5 C          64.3763   91.0804   15.4952 C.2     1  UNL1        0.2442
      6 O          63.7164   91.7722   16.6510 O.2     1  UNL1       -0.2731
      7 C          63.2122   88.8556   16.1621 C.3     1  UNL1        0.1149
      8 C          62.9601   87.3972   15.9176 C.3     1  UNL1        0.1123
      9 C          62.8336   84.7902   13.1924 C.ar    1  UNL1        0.0053
     10 C          62.5815   83.3319   12.9479 C.ar    1  UNL1        0.0021
     11 C          62.8639   82.3305   14.0284 C.ar    1  UNL1        0.0712
     12 C          63.3983   82.7875   15.3534 C.ar    1  UNL1        0.0051
     13 C          63.6503   84.2458   15.5978 C.ar    1  UNL1        0.0142
     14 C          63.3680   85.2471   14.5173 C.ar    1  UNL1        0.0451
     15 C          62.6118   80.8722   13.7839 C.3     1  UNL1        0.4186
     16 F          62.3597   79.4139   13.5394 F       1  UNL1       -0.1659
     17 F          63.8874   80.7832   12.9999 F       1  UNL1       -0.1659
     18 F          61.3362   80.9612   14.5680 F       1  UNL1       -0.1659
     19 C          62.5512   85.7916   12.1118 C.3     1  UNL1        0.0783
     20 N          62.8256   87.2472   12.3480 N.3     1  UNL1       -0.2904
     21 H          63.8299   87.3363   12.5021 H       1  UNL1        0.1238
     22 C          62.4562   88.2590   11.3041 C.3     1  UNL1        0.1112
     23 C          62.0602   89.6472   11.7120 C.2     1  UNL1        0.0663
     24 O          62.1931   90.7814   10.7394 O.co2   1  UNL1       -0.5477
     25 O          61.5314   89.9011   13.0925 O.co2   1  UNL1       -0.5477
     26 C          61.9945   85.3373   10.7951 C.3     1  UNL1        0.0203
     27 C          62.9502   85.6442    8.3988 C.3     1  UNL1        0.0001
     28 C          62.9212   84.8988    9.7002 C.3     1  UNL1        0.0017
     29 C          63.8189   83.7150    9.9066 C.3     1  UNL1        0.0001
     30 C          65.2884   91.8470   14.5839 C.3     1  UNL1        0.1564
     31 N          66.5873   92.3875   15.1040 N.am    1  UNL1       -0.2727
     32 C          67.5571   91.6566   15.9845 C.3     1  UNL1        0.0943
     33 C          68.7136   92.5712   16.2598 C.3     1  UNL1        0.0311
     34 C          68.4586   93.8675   15.5493 C.3     1  UNL1        0.0870
     35 C          67.1445   93.7540   14.8351 C.2     1  UNL1        0.2260
     36 O          66.5006   94.8197   13.9987 O.2     1  UNL1       -0.2749
     37 C          64.9016   92.0730   13.1524 C.3     1  UNL1        0.0564
     38 C          65.9628   92.2032   12.1003 C.ar    1  UNL1       -0.0094
     39 C          67.3161   91.5948   12.3207 C.ar    1  UNL1       -0.0025
     40 C          68.3773   91.7250   11.2686 C.ar    1  UNL1        0.0111
     41 C          68.0852   92.4637    9.9961 C.ar    1  UNL1        0.0585
     42 CL         69.1464   92.5939    8.9441 Cl      1  UNL1       -0.0822
     43 C          66.7320   93.0721    9.7758 C.ar    1  UNL1        0.0225
     44 C          65.6708   92.9418   10.8279 C.ar    1  UNL1        0.0546
     45 CL         65.0301   93.3201   10.5417 Cl      1  UNL1       -0.0825
@<TRIPOS>UNITY_ATOM_ATTR
24 1
charge -1
@<TRIPOS>BOND
     1    27    28    1
     2    28    29    1
     3    28    26    1
     4    19    26    1
     5    19    20    1
     6    20    22    1
     7    22    23    1
     8    23    24   ar
     9    23    25   ar
    10    19     9    1
    11     9    10   ar
    12    10    11   ar
    13    11    15    1
    14    15    16    1
    15    15    17    1
    16    15    18    1
    17    11    12   ar
    18    12    13   ar
    19    13    14   ar
    20    14     1    1
    21     1     2    1
    22     2     3    1
    23     3     4    1
    24     4     5   am
    25     5     6    2
    26     5    30    1
    27    30    37    1
    28    37    38    1
    29    38    39   ar
    30    39    40   ar
    31    40    41   ar
    32    41    42    1
    33    41    43   ar
    34    43    44   ar
    35    44    45    1
    36    30    31    1
    37    31    32    1
    38    32    33    1
    39    33    34    1
    40    34    35    1
    41    35    36    2
    42     4     7    1
    43     7     8    1
    44    14     9   ar
    45     8     1    1
    46    44    38   ar
    47    35    31   am
    48    20    21    1
@<TRIPOS>MOLECULE
*****
 45 48 0 0 0
SMALL
GASTEIGER

@<TRIPOS>ATOM
      1 N          63.3249   86.8809   12.9328 N.pl3   1  UNL1       -0.3043
      2 C          64.3695   87.4732   13.8316 C.3     1  UNL1        0.1123
      3 C          64.7144   88.9290   13.7231 C.3     1  UNL1        0.1149
      4 N          64.0146   89.7925   12.7157 N.am    1  UNL1       -0.2747
      5 C          64.3595   91.2482   12.6072 C.2     1  UNL1        0.2442
      6 O          63.6597   92.1116   11.5998 O.2     1  UNL1       -0.2731
      7 C          62.9700   89.2001   11.8169 C.3     1  UNL1        0.1149
      8 C          62.6251   87.7443   11.9254 C.3     1  UNL1        0.1123
      9 C          62.2842   84.7325   11.9073 C.ar    1  UNL1        0.0053
     10 C          61.9394   83.2768   12.0159 C.ar    1  UNL1        0.0021
     11 C          62.2904   82.5136   13.2586 C.ar    1  UNL1        0.0712
     12 C          62.9862   83.2061   14.3927 C.ar    1  UNL1        0.0051
     13 C          63.3310   84.6618   14.2841 C.ar    1  UNL1        0.0142
     14 C          62.9800   85.4251   13.0414 C.ar    1  UNL1        0.0451
     15 C          61.9456   81.0577   13.3672 C.3     1  UNL1        0.4186
     16 F          61.6007   79.6020   13.4758 F       1  UNL1       -0.1659
     17 F          61.0014   81.3653   14.4914 F       1  UNL1       -0.1659
     18 F          62.8898   80.7502   12.2430 F       1  UNL1       -0.1659
     19 C          61.9333   85.4957   10.6646 C.3     1  UNL1        0.0783
     20 N          60.5578   86.0713   10.5013 N.3     1  UNL1       -0.2904
     21 H          60.2828   86.4398   11.4117 H       1  UNL1        0.1238
     22 C          60.3153   87.1626    9.5012 C.3     1  UNL1        0.1112
     23 C          59.5678   86.8668    8.2347 C.2     1  UNL1        0.0663
     24 O          59.8718   85.6199    7.4582 O.co2   1  UNL1       -0.5477
     25 O          58.5164   87.8178    7.7448 O.co2   1  UNL1       -0.5477
     26 C          62.9578   85.6834    9.5852 C.3     1  UNL1        0.0203
     27 C          64.1052   83.3723    9.2810 C.3     1  UNL1        0.0001
     28 C          63.3423   84.5295    8.7073 C.3     1  UNL1        0.0017
     29 C          62.9640   84.5328    7.2558 C.3     1  UNL1        0.0001
     30 C          65.4041   91.8406   13.5060 C.3     1  UNL1        0.1564
     31 N          65.1276   92.0040   14.9712 N.am    1  UNL1       -0.2727
     32 C          63.9195   91.4982   15.7023 C.3     1  UNL1        0.0943
     33 C          64.0560   91.8835   17.1455 C.3     1  UNL1        0.0311
     34 C          65.3485   92.6275   17.3063 C.3     1  UNL1        0.0870
     35 C          66.0108   92.7019   15.9625 C.2     1  UNL1        0.2260
     36 O          67.3255   93.3590   15.6628 O.2     1  UNL1       -0.2749
     37 C          66.7251   92.2695   12.9396 C.3     1  UNL1        0.0564
     38 C          66.7704   93.1709   11.7416 C.ar    1  UNL1       -0.0094
     39 C          66.1595   94.5392   11.8090 C.ar    1  UNL1       -0.0025
     40 C          66.2048   95.4407   10.6110 C.ar    1  UNL1        0.0111
     41 C          66.8610   94.9738    9.3455 C.ar    1  UNL1        0.0585
     42 CL         66.9063   95.8752    8.1474 Cl      1  UNL1       -0.0822
     43 C          67.4720   93.6055    9.2781 C.ar    1  UNL1        0.0225
     44 C          67.4267   92.7041   10.4761 C.ar    1  UNL1        0.0546
     45 CL         67.7938   92.0308   10.2585 Cl      1  UNL1       -0.0825
@<TRIPOS>UNITY_ATOM_ATTR
24 1
charge -1
@<TRIPOS>BOND
     1    27    28    1
     2    28    29    1
     3    28    26    1
     4    19    26    1
     5    19    20    1
     6    20    22    1
     7    22    23    1
     8    23    24   ar
     9    23    25   ar
    10    19     9    1
    11     9    10   ar
    12    10    11   ar
    13    11    15    1
    14    15    16    1
    15    15    17    1
    16    15    18    1
    17    11    12   ar
    18    12    13   ar
    19    13    14   ar
    20    14     1    1
    21     1     2    1
    22     2     3    1
    23     3     4    1
    24     4     5   am
    25     5     6    2
    26     5    30    1
    27    30    37    1
    28    37    38    1
    29    38    39   ar
    30    39    40   ar
    31    40    41   ar
    32    41    42    1
    33    41    43   ar
    34    43    44   ar
    35    44    45    1
    36    30    31    1
    37    31    32    1
    38    32    33    1
    39    33    34    1
    40    34    35    1
    41    35    36    2
    42     4     7    1
    43     7     8    1
    44    14     9   ar
    45     8     1    1
    46    44    38   ar
    47    35    31   am
    48    20    21    1
@<TRIPOS>MOLECULE
*****
 45 48 0 0 0
SMALL
GASTEIGER

@<TRIPOS>ATOM
      1 N          63.2479   86.6046   13.1050 N.pl3   1  UNL1       -0.3043
      2 C          64.2891   87.2277   13.9868 C.3     1  UNL1        0.1123
      3 C          64.6480   88.6741   13.8168 C.3     1  UNL1        0.1149
      4 N          63.9656   89.4976   12.7650 N.am    1  UNL1       -0.2747
      5 C          64.3245   90.9441   12.5950 C.2     1  UNL1        0.2442
      6 O          63.6421   91.7675   11.5432 O.2     1  UNL1       -0.2731
      7 C          62.9244   88.8746   11.8831 C.3     1  UNL1        0.1149
      8 C          62.5655   87.4280   12.0532 C.3     1  UNL1        0.1123
      9 C          62.4168   84.3590   12.0967 C.ar    1  UNL1        0.0053
     10 C          62.0580   82.9126   12.2668 C.ar    1  UNL1        0.0021
     11 C          62.1714   82.2652   13.6151 C.ar    1  UNL1        0.0712
     12 C          62.6436   83.0643   14.7934 C.ar    1  UNL1        0.0051
     13 C          63.0025   84.5107   14.6234 C.ar    1  UNL1        0.0142
     14 C          62.8890   85.1581   13.2750 C.ar    1  UNL1        0.0451
     15 C          61.8126   80.8186   13.7852 C.3     1  UNL1        0.4186
     16 F          61.4538   79.3722   13.9552 F       1  UNL1       -0.1659
     17 F          63.1708   80.4231   13.2866 F       1  UNL1       -0.1659
     18 F          60.4543   81.2141   14.2838 F       1  UNL1       -0.1659
     19 C          62.3034   85.0064   10.7484 C.3     1  UNL1        0.0783
     20 N          63.4459   84.9270    9.7798 N.3     1  UNL1       -0.2904
     21 H          64.2542   85.3419   10.2433 H       1  UNL1        0.1238
     22 C          63.8876   83.5955    9.2485 C.3     1  UNL1        0.1112
     23 C          64.1893   82.4725   10.1961 C.2     1  UNL1        0.0663
     24 O          65.2190   82.6548   11.2715 O.co2   1  UNL1       -0.5477
     25 O          63.4614   81.1673   10.0683 O.co2   1  UNL1       -0.5477
     26 C          61.0474   85.7332   10.3686 C.3     1  UNL1        0.0203
     27 C          61.0234   85.6247    7.7729 C.3     1  UNL1        0.0001
     28 C          60.9529   86.4238    9.0404 C.3     1  UNL1        0.0017
     29 C          60.7880   87.9135    8.9797 C.3     1  UNL1        0.0001
     30 C          65.3657   91.5671   13.4768 C.3     1  UNL1        0.1564
     31 N          65.0727   91.8088   14.9279 N.am    1  UNL1       -0.2727
     32 C          63.9048   91.2624   15.6944 C.3     1  UNL1        0.0943
     33 C          64.0063   91.7551   17.1075 C.3     1  UNL1        0.0311
     34 C          65.2370   92.6061   17.2143 C.3     1  UNL1        0.0870
     35 C          65.8960   92.6392   15.8673 C.2     1  UNL1        0.2260
     36 O          67.1570   93.3738   15.5205 O.2     1  UNL1       -0.2749
     37 C          66.7000   91.9486   12.9076 C.3     1  UNL1        0.0564
     38 C          66.7835   92.9670   11.8094 C.ar    1  UNL1       -0.0094
     39 C          66.2095   94.3379   12.0126 C.ar    1  UNL1       -0.0025
     40 C          66.2930   95.3562   10.9144 C.ar    1  UNL1        0.0111
     41 C          66.9505   95.0037    9.6131 C.ar    1  UNL1        0.0585
     42 CL         67.0340   96.0221    8.5149 Cl      1  UNL1       -0.0822
     43 C          67.5245   93.6329    9.4099 C.ar    1  UNL1        0.0225
     44 C          67.4410   92.6145   10.5081 C.ar    1  UNL1        0.0546
     45 CL         67.7920   91.9570   10.2252 Cl      1  UNL1       -0.0825
@<TRIPOS>UNITY_ATOM_ATTR
24 1
charge -1
@<TRIPOS>BOND
     1    27    28    1
     2    28    29    1
     3    28    26    1
     4    19    26    1
     5    19    20    1
     6    20    22    1
     7    22    23    1
     8    23    24   ar
     9    23    25   ar
    10    19     9    1
    11     9    10   ar
    12    10    11   ar
    13    11    15    1
    14    15    16    1
    15    15    17    1
    16    15    18    1
    17    11    12   ar
    18    12    13   ar
    19    13    14   ar
    20    14     1    1
    21     1     2    1
    22     2     3    1
    23     3     4    1
    24     4     5   am
    25     5     6    2
    26     5    30    1
    27    30    37    1
    28    37    38    1
    29    38    39   ar
    30    39    40   ar
    31    40    41   ar
    32    41    42    1
    33    41    43   ar
    34    43    44   ar
    35    44    45    1
    36    30    31    1
    37    31    32    1
    38    32    33    1
    39    33    34    1
    40    34    35    1
    41    35    36    2
    42     4     7    1
    43     7     8    1
    44    14     9   ar
    45     8     1    1
    46    44    38   ar
    47    35    31   am
    48    20    21    1
@<TRIPOS>MOLECULE
*****
 45 48 0 0 0
SMALL
GASTEIGER

@<TRIPOS>ATOM
      1 N          63.4795   86.4583   14.2216 N.pl3   1  UNL1       -0.3043
      2 C          63.7593   87.2821   12.9997 C.3     1  UNL1        0.1123
      3 C          63.9582   88.7637   13.1235 C.3     1  UNL1        0.1149
      4 N          63.8773   89.4215   14.4693 N.am    1  UNL1       -0.2747
      5 C          64.0762   90.9030   14.5931 C.2     1  UNL1        0.2442
      6 O          63.9954   91.5607   15.9387 O.2     1  UNL1       -0.2731
      7 C          63.5976   88.5976   15.6911 C.3     1  UNL1        0.1149
      8 C          63.3987   87.1160   15.5673 C.3     1  UNL1        0.1123
      9 C          62.7214   84.3982   12.8318 C.ar    1  UNL1        0.0053
     10 C          62.5225   82.9166   12.7080 C.ar    1  UNL1        0.0021
     11 C          62.8829   82.0135   13.8502 C.ar    1  UNL1        0.0712
     12 C          63.4421   82.5919   15.1161 C.ar    1  UNL1        0.0051
     13 C          63.6410   84.0735   15.2399 C.ar    1  UNL1        0.0142
     14 C          63.2806   84.9766   14.0978 C.ar    1  UNL1        0.0451
     15 C          62.6840   80.5319   13.7263 C.3     1  UNL1        0.4186
     16 F          62.4850   79.0503   13.6025 F       1  UNL1       -0.1659
     17 F          61.2192   80.7486   13.4866 F       1  UNL1       -0.1659
     18 F          64.1487   80.3151   13.9660 F       1  UNL1       -0.1659
     19 C          62.3610   85.3014   11.6897 C.3     1  UNL1        0.0783
     20 N          61.0447   86.0205   11.6887 N.3     1  UNL1       -0.2904
     21 H          60.8092   86.2049   12.6639 H       1  UNL1        0.1238
     22 C          60.9012   87.3211   10.9553 C.3     1  UNL1        0.1112
     23 C          60.2449   87.3532    9.6068 C.2     1  UNL1        0.0663
     24 O          59.6928   88.6412    9.0719 O.co2   1  UNL1       -0.5477
     25 O          60.1408   86.0973    8.7933 O.co2   1  UNL1       -0.5477
     26 C          63.3169   85.4853   10.5485 C.3     1  UNL1        0.0203
     27 C          64.0068   83.0918    9.8100 C.3     1  UNL1        0.0001
     28 C          63.4241   84.4349    9.4831 C.3     1  UNL1        0.0017
     29 C          62.9486   84.7274    8.0909 C.3     1  UNL1        0.0001
     30 C          64.3560   91.7269   13.3712 C.3     1  UNL1        0.1564
     31 N          63.6210   91.4475   12.0938 N.am    1  UNL1       -0.2727
     32 C          62.2470   90.8569   11.9781 C.3     1  UNL1        0.0943
     33 C          61.9079   90.7540   10.5206 C.3     1  UNL1        0.0311
     34 C          63.0723   91.2810    9.7355 C.3     1  UNL1        0.0870
     35 C          64.1311   91.7095   10.7077 C.2     1  UNL1        0.2260
     36 O          65.4656   92.2970   10.3557 O.2     1  UNL1       -0.2749
     37 C          65.3706   92.8302   13.4267 C.3     1  UNL1        0.0564
     38 C          66.5990   92.6776   14.2739 C.ar    1  UNL1       -0.0094
     39 C          66.5893   93.1434   15.6998 C.ar    1  UNL1       -0.0025
     40 C          67.8177   92.9907   16.5470 C.ar    1  UNL1        0.0111
     41 C          69.0558   92.3722   15.9683 C.ar    1  UNL1        0.0585
     42 CL         70.2842   92.2196   16.8155 Cl      1  UNL1       -0.0822
     43 C          69.0654   91.9064   14.5425 C.ar    1  UNL1        0.0225
     44 C          67.8370   92.0591   13.6953 C.ar    1  UNL1        0.0546
     45 CL         68.0251   91.7617   12.9800 Cl      1  UNL1       -0.0825
@<TRIPOS>UNITY_ATOM_ATTR
24 1
charge -1
@<TRIPOS>BOND
     1    27    28    1
     2    28    29    1
     3    28    26    1
     4    19    26    1
     5    19    20    1
     6    20    22    1
     7    22    23    1
     8    23    24   ar
     9    23    25   ar
    10    19     9    1
    11     9    10   ar
    12    10    11   ar
    13    11    15    1
    14    15    16    1
    15    15    17    1
    16    15    18    1
    17    11    12   ar
    18    12    13   ar
    19    13    14   ar
    20    14     1    1
    21     1     2    1
    22     2     3    1
    23     3     4    1
    24     4     5   am
    25     5     6    2
    26     5    30    1
    27    30    37    1
    28    37    38    1
    29    38    39   ar
    30    39    40   ar
    31    40    41   ar
    32    41    42    1
    33    41    43   ar
    34    43    44   ar
    35    44    45    1
    36    30    31    1
    37    31    32    1
    38    32    33    1
    39    33    34    1
    40    34    35    1
    41    35    36    2
    42     4     7    1
    43     7     8    1
    44    14     9   ar
    45     8     1    1
    46    44    38   ar
    47    35    31   am
    48    20    21    1
@<TRIPOS>MOLECULE
*****
 45 48 0 0 0
SMALL
GASTEIGER

@<TRIPOS>ATOM
      1 N          64.3334   88.1503   14.5440 N.pl3   1  UNL1       -0.3043
      2 C          64.3392   87.1718   13.4071 C.3     1  UNL1        0.1123
      3 C          63.8843   85.7600   13.6303 C.3     1  UNL1        0.1149
      4 N          63.4235   85.3267   14.9905 N.am    1  UNL1       -0.2747
      5 C          62.9686   83.9149   15.2137 C.2     1  UNL1        0.2442
      6 O          62.5079   83.4816   16.5738 O.2     1  UNL1       -0.2731
      7 C          63.4177   86.3052   16.1274 C.3     1  UNL1        0.1149
      8 C          63.8727   87.7170   15.9041 C.3     1  UNL1        0.1123
      9 C          64.0168   90.4623   13.4018 C.ar    1  UNL1        0.0053
     10 C          64.4718   91.8740   13.1785 C.ar    1  UNL1        0.0021
     11 C          65.6983   92.3857   13.8742 C.ar    1  UNL1        0.0712
     12 C          66.4698   91.4855   14.7931 C.ar    1  UNL1        0.0051
     13 C          66.0149   90.0738   15.0163 C.ar    1  UNL1        0.0142
     14 C          64.7884   89.5621   14.3207 C.ar    1  UNL1        0.0451
     15 C          66.1532   93.7975   13.6509 C.3     1  UNL1        0.4186
     16 F          66.6081   95.2093   13.4275 F       1  UNL1       -0.1659
     17 F          65.5745   93.7652   12.2674 F       1  UNL1       -0.1659
     18 F          66.7320   93.8299   15.0343 F       1  UNL1       -0.1659
     19 C          62.7903   89.9506   12.7061 C.3     1  UNL1        0.0783
     20 N          61.4520   90.0487   13.3763 N.3     1  UNL1       -0.2904
     21 H          61.1013   90.9896   13.1974 H       1  UNL1        0.1238
     22 C          60.3537   89.0985   13.0008 C.3     1  UNL1        0.1112
     23 C          59.0342   89.6285   12.5233 C.2     1  UNL1        0.0663
     24 O          58.9877   90.8415   11.6421 O.co2   1  UNL1       -0.5477
     25 O          57.7612   88.9455   12.9270 O.co2   1  UNL1       -0.5477
     26 C          62.9021   89.3410   11.3402 C.3     1  UNL1        0.0203
     27 C          61.2765   89.5142    9.3209 C.3     1  UNL1        0.0001
     28 C          62.3937   90.0867   10.1421 C.3     1  UNL1        0.0017
     29 C          63.0023   91.4047    9.7652 C.3     1  UNL1        0.0001
     30 C          62.9744   82.9364   14.0769 C.3     1  UNL1        0.1564
     31 N          62.0704   81.7400   14.1124 N.am    1  UNL1       -0.2727
     32 C          60.5706   81.7679   14.1111 C.3     1  UNL1        0.0943
     33 C          60.0806   80.3508   14.1534 C.3     1  UNL1        0.0311
     34 C          61.2776   79.4471   14.1807 C.3     1  UNL1        0.0870
     35 C          62.5073   80.3057   14.1554 C.2     1  UNL1        0.2260
     36 O          63.9250   79.8160   14.1704 O.2     1  UNL1       -0.2749
     37 C          63.8843   83.1542   12.9045 C.3     1  UNL1        0.0564
     38 C          63.3665   83.8274   11.6680 C.ar    1  UNL1       -0.0094
     39 C          62.2402   84.8132   11.7666 C.ar    1  UNL1       -0.0025
     40 C          61.7224   85.4864   10.5302 C.ar    1  UNL1        0.0111
     41 C          62.3307   85.1736    9.1952 C.ar    1  UNL1        0.0585
     42 CL         61.8129   85.8467    7.9588 Cl      1  UNL1       -0.0822
     43 C          63.4569   84.1878    9.0967 C.ar    1  UNL1        0.0225
     44 C          63.9748   83.5146   10.3331 C.ar    1  UNL1        0.0546
     45 CL         64.5623   83.0330   10.0914 Cl      1  UNL1       -0.0825
@<TRIPOS>UNITY_ATOM_ATTR
24 1
charge -1
@<TRIPOS>BOND
     1    27    28    1
     2    28    29    1
     3    28    26    1
     4    19    26    1
     5    19    20    1
     6    20    22    1
     7    22    23    1
     8    23    24   ar
     9    23    25   ar
    10    19     9    1
    11     9    10   ar
    12    10    11   ar
    13    11    15    1
    14    15    16    1
    15    15    17    1
    16    15    18    1
    17    11    12   ar
    18    12    13   ar
    19    13    14   ar
    20    14     1    1
    21     1     2    1
    22     2     3    1
    23     3     4    1
    24     4     5   am
    25     5     6    2
    26     5    30    1
    27    30    37    1
    28    37    38    1
    29    38    39   ar
    30    39    40   ar
    31    40    41   ar
    32    41    42    1
    33    41    43   ar
    34    43    44   ar
    35    44    45    1
    36    30    31    1
    37    31    32    1
    38    32    33    1
    39    33    34    1
    40    34    35    1
    41    35    36    2
    42     4     7    1
    43     7     8    1
    44    14     9   ar
    45     8     1    1
    46    44    38   ar
    47    35    31   am
    48    20    21    1
@<TRIPOS>MOLECULE
*****
 45 48 0 0 0
SMALL
GASTEIGER

@<TRIPOS>ATOM
      1 N          64.5943   89.9079   12.9019 N.pl3   1  UNL1       -0.3043
      2 C          63.6858   89.0656   12.0563 C.3     1  UNL1        0.1123
      3 C          63.3281   87.6763   12.4943 C.3     1  UNL1        0.1149
      4 N          63.8788   87.1293   13.7779 N.am    1  UNL1       -0.2747
      5 C          63.5210   85.7400   14.2158 C.2     1  UNL1        0.2442
      6 O          64.0717   85.1931   15.4994 O.2     1  UNL1       -0.2731
      7 C          64.7873   87.9717   14.6235 C.3     1  UNL1        0.1149
      8 C          65.1450   89.3610   14.1855 C.3     1  UNL1        0.1123
      9 C          65.3399   92.3282   13.4821 C.ar    1  UNL1        0.0053
     10 C          65.6977   93.7174   13.0441 C.ar    1  UNL1        0.0021
     11 C          65.6675   94.0758   11.5879 C.ar    1  UNL1        0.0712
     12 C          65.2796   93.0450   10.5697 C.ar    1  UNL1        0.0051
     13 C          64.9219   91.6557   11.0077 C.ar    1  UNL1        0.0142
     14 C          64.9521   91.2973   12.4639 C.ar    1  UNL1        0.0451
     15 C          66.0253   95.4652   11.1499 C.3     1  UNL1        0.4186
     16 F          66.3830   96.8545   10.7118 F       1  UNL1       -0.1659
     17 F          65.9857   95.0236    9.7169 F       1  UNL1       -0.1659
     18 F          66.0649   95.9068   12.5828 F       1  UNL1       -0.1659
     19 C          65.3701   91.9698   14.9384 C.3     1  UNL1        0.0783
     20 N          64.0927   91.9082   15.7222 N.3     1  UNL1       -0.2904
     21 H          63.3442   91.7325   15.0520 H       1  UNL1        0.1238
     22 C          63.9351   90.8998   16.8214 C.3     1  UNL1        0.1112
     23 C          63.0564   89.7010   16.6192 C.2     1  UNL1        0.0663
     24 O          63.1390   88.5419   17.5676 O.co2   1  UNL1       -0.5477
     25 O          62.0949   89.6615   15.4685 O.co2   1  UNL1       -0.5477
     26 C          66.6776   91.6730   15.6108 C.3     1  UNL1        0.0203
     27 C          68.3006   93.6795   15.9110 C.3     1  UNL1        0.0001
     28 C          67.9162   92.4143   15.2027 C.3     1  UNL1        0.0017
     29 C          68.7702   91.8904   14.0864 C.3     1  UNL1        0.0001
     30 C          62.6125   84.8976   13.3702 C.3     1  UNL1        0.1564
     31 N          62.6136   83.4057   13.5250 N.am    1  UNL1       -0.2727
     32 C          61.5718   82.5921   14.2341 C.3     1  UNL1        0.0943
     33 C          61.9709   81.1489   14.1452 C.3     1  UNL1        0.0311
     34 C          63.2594   81.0706   13.3811 C.3     1  UNL1        0.0870
     35 C          63.6565   82.4653   12.9978 C.2     1  UNL1        0.2260
     36 O          64.8816   82.8518   12.2233 O.2     1  UNL1       -0.2749
     37 C          61.7030   85.5472   12.3698 C.3     1  UNL1        0.0564
     38 C          61.9715   85.3944   10.9020 C.ar    1  UNL1       -0.0094
     39 C          63.0655   84.4828   10.4305 C.ar    1  UNL1       -0.0025
     40 C          63.3339   84.3300    8.9627 C.ar    1  UNL1        0.0111
     41 C          62.5083   85.0888    7.9663 C.ar    1  UNL1        0.0585
     42 CL         62.7767   84.9360    6.4984 Cl      1  UNL1       -0.0822
     43 C          61.4143   86.0003    8.4378 C.ar    1  UNL1        0.0225
     44 C          61.1459   86.1531    9.9056 C.ar    1  UNL1        0.0546
     45 CL         60.5404   86.6681    9.9658 Cl      1  UNL1       -0.0825
@<TRIPOS>UNITY_ATOM_ATTR
24 1
charge -1
@<TRIPOS>BOND
     1    27    28    1
     2    28    29    1
     3    28    26    1
     4    19    26    1
     5    19    20    1
     6    20    22    1
     7    22    23    1
     8    23    24   ar
     9    23    25   ar
    10    19     9    1
    11     9    10   ar
    12    10    11   ar
    13    11    15    1
    14    15    16    1
    15    15    17    1
    16    15    18    1
    17    11    12   ar
    18    12    13   ar
    19    13    14   ar
    20    14     1    1
    21     1     2    1
    22     2     3    1
    23     3     4    1
    24     4     5   am
    25     5     6    2
    26     5    30    1
    27    30    37    1
    28    37    38    1
    29    38    39   ar
    30    39    40   ar
    31    40    41   ar
    32    41    42    1
    33    41    43   ar
    34    43    44   ar
    35    44    45    1
    36    30    31    1
    37    31    32    1
    38    32    33    1
    39    33    34    1
    40    34    35    1
    41    35    36    2
    42     4     7    1
    43     7     8    1
    44    14     9   ar
    45     8     1    1
    46    44    38   ar
    47    35    31   am
    48    20    21    1
