@<TRIPOS>MOLECULE
*****
 62 68 0 0 0
SMALL
GASTEIGER

@<TRIPOS>ATOM
      1 N          61.9237   95.8553   -5.9316 N.3     1  UNL1       -0.1862
      2 C          60.4892   95.6411   -6.3143 C.3     1  UNL1        0.1775
      3 C          59.4597   95.3877   -5.2533 C.2     1  UNL1        0.2452
      4 O          58.0252   95.1734   -5.6360 O.2     1  UNL1       -0.2732
      5 N          59.8646   95.3485   -3.8095 N.am    1  UNL1       -0.2541
      6 C          58.8350   95.0952   -2.7484 C.3     1  UNL1        0.1577
      7 C          59.2399   95.0560   -1.3047 C.2     1  UNL1        0.2445
      8 O          58.2103   94.8026   -0.2436 O.2     1  UNL1       -0.2731
      9 N          60.6744   95.2702   -0.9219 N.am    1  UNL1       -0.2705
     10 C          61.7039   95.5236   -1.9829 C.3     1  UNL1        0.1359
     11 C          61.2990   95.5628   -3.4268 C.3     1  UNL1        0.1908
     12 N          62.3285   95.8162   -4.4878 N.am    1  UNL1       -0.1863
     13 C          63.7630   96.0304   -4.1050 C.2     1  UNL1        0.3191
     14 O          64.1679   95.9913   -2.6613 O.2     1  UNL1       -0.2512
     15 N          64.7925   96.2838   -5.1661 N.am    1  UNL1       -0.2836
     16 H          64.5268   96.3095   -6.1137 H       1  UNL1        0.1513
     17 C          62.9532   96.1087   -6.9926 C.3     1  UNL1        0.1188
     18 C          63.2601   93.5902   -7.5519 C.2     1  UNL1       -0.0034
     19 C          63.8123   94.9834   -7.4880 C.2     1  UNL1       -0.0071
     20 C          57.4006   94.8809   -3.1312 C.3     1  UNL1        0.0556
     21 C          56.8429   93.4902   -3.2021 C.ar    1  UNL1       -0.0198
     22 C          56.7232   92.7969   -4.5268 C.ar    1  UNL1       -0.0011
     23 C          56.1655   91.4062   -4.5978 C.ar    1  UNL1        0.0363
     24 C          55.7276   90.7089   -3.3441 C.ar    1  UNL1        0.1337
     25 O          55.1700   89.3182   -3.4150 O.3     1  UNL1       -0.5055
     26 C          55.8474   91.4022   -2.0192 C.ar    1  UNL1        0.0363
     27 C          56.4051   92.7929   -1.9483 C.ar    1  UNL1       -0.0011
     28 H          55.0952   88.8851   -4.2425 H       1  UNL1        0.2922
     29 C          61.0792   95.2311    0.5219 C.3     1  UNL1        0.1217
     30 C          61.3097   93.9135    1.2007 C.ar    1  UNL1        0.0135
     31 C          62.2376   92.9065    0.5885 C.ar    1  UNL1       -0.0012
     32 C          62.4681   91.5889    1.2673 C.ar    1  UNL1       -0.0002
     33 C          61.7706   91.2783    2.5584 C.ar    1  UNL1        0.0015
     34 C          60.8426   92.2853    3.1706 C.ar    1  UNL1        0.0170
     35 C          60.0213   92.2605    4.4255 C.ar    1  UNL1        0.0186
     36 C          59.2832   93.5627    4.5223 C.ar    1  UNL1        0.0759
     37 N          59.6484   94.3923    3.3272 N.ar    1  UNL1       -0.3242
     38 C          59.1392   95.7696    3.0212 C.3     1  UNL1        0.1305
     39 C          60.6122   93.6028    2.4918 C.ar    1  UNL1        0.0575
     40 C          59.9505   91.1315    5.4108 C.ar    1  UNL1        0.0015
     41 C          58.7632   90.2148    5.4170 C.ar    1  UNL1        0.0002
     42 C          58.6924   89.0860    6.4022 C.ar    1  UNL1        0.0046
     43 C          59.8089   88.8738    7.3811 C.ar    1  UNL1        0.0546
     44 C          60.9962   89.7904    7.3750 C.ar    1  UNL1        0.0046
     45 C          61.0670   90.9193    6.3898 C.ar    1  UNL1        0.0002
     46 C          59.7381   87.7449    8.3663 C.2     1  UNL1        0.2588
     47 O          58.4867   86.9256    8.4795 O.2     1  UNL1       -0.2689
     48 N          60.9186   87.4352    9.2384 N.am    1  UNL1       -0.2463
     49 H          61.7400   87.9729    9.1642 H       1  UNL1        0.1693
     50 N          60.8477   86.3063   10.2235 N.3     1  UNL1       -0.2325
     51 H          60.0251   85.7544    9.9802 H       1  UNL1        0.1449
     52 C          61.9929   85.3454   10.3467 C.3     1  UNL1        0.0585
     53 C          61.8477   85.3638   11.8396 C.3     1  UNL1        0.0174
     54 C          62.1382   85.3271    8.8539 C.3     1  UNL1        0.0174
     55 C          63.1382   84.3846   10.4699 C.3     1  UNL1        0.0174
     56 C          66.2270   96.4981   -4.7834 C.3     1  UNL1        0.1177
     57 C          67.3235   96.0613   -5.7091 C.ar    1  UNL1       -0.0025
     58 C          67.1507   94.8300   -6.5481 C.ar    1  UNL1       -0.0026
     59 C          68.2472   94.3932   -7.4738 C.ar    1  UNL1       -0.0003
     60 C          69.5165   95.1878   -7.5605 C.ar    1  UNL1       -0.0000
     61 C          69.6893   96.4192   -6.7214 C.ar    1  UNL1       -0.0003
     62 C          68.5928   96.8559   -5.7957 C.ar    1  UNL1       -0.0026
@<TRIPOS>BOND
     1    18    19    2
     2    19    17    1
     3    17     1    1
     4     1     2    1
     5     2     3    1
     6     3     4    2
     7     3     5   am
     8     5     6    1
     9     6    20    1
    10    20    21    1
    11    21    22   ar
    12    22    23   ar
    13    23    24   ar
    14    24    25    1
    15    24    26   ar
    16    26    27   ar
    17     6     7    1
    18     7     8    2
    19     7     9   am
    20     9    29    1
    21    29    30    1
    22    30    31   ar
    23    31    32   ar
    24    32    33   ar
    25    33    34   ar
    26    34    35   ar
    27    35    40    1
    28    40    41   ar
    29    41    42   ar
    30    42    43   ar
    31    43    46    1
    32    46    47    2
    33    46    48   am
    34    48    50    1
    35    50    52    1
    36    52    53    1
    37    52    54    1
    38    52    55    1
    39    43    44   ar
    40    44    45   ar
    41    35    36   ar
    42    36    37   ar
    43    37    38    1
    44    37    39   ar
    45     9    10    1
    46    11    10    1
    47    11    12    1
    48    12    13   am
    49    13    14    2
    50    13    15   am
    51    15    56    1
    52    56    57    1
    53    57    58   ar
    54    58    59   ar
    55    59    60   ar
    56    60    61   ar
    57    61    62   ar
    58    12     1    1
    59    62    57   ar
    60    11     5    1
    61    27    21   ar
    62    39    30   ar
    63    39    34   ar
    64    45    40   ar
    65    25    28    1
    66    48    49    1
    67    50    51    1
    68    15    16    1
@<TRIPOS>MOLECULE
*****
 62 68 0 0 0
SMALL
GASTEIGER

@<TRIPOS>ATOM
      1 N          65.5304   89.2030   14.5026 N.3     1  UNL1       -0.1862
      2 C          65.7834   87.9406   15.2720 C.3     1  UNL1        0.1775
      3 C          64.9571   86.7185   15.0006 C.2     1  UNL1        0.2452
      4 O          65.2101   85.4559   15.7702 O.2     1  UNL1       -0.2732
      5 N          63.8778   86.7588   13.9598 N.am    1  UNL1       -0.2541
      6 C          63.0514   85.5368   13.6884 C.3     1  UNL1        0.1577
      7 C          61.9721   85.5771   12.6475 C.2     1  UNL1        0.2445
      8 O          61.1458   84.3551   12.3761 O.2     1  UNL1       -0.2731
      9 N          61.7191   86.8397   11.8780 N.am    1  UNL1       -0.2705
     10 C          62.5454   88.0618   12.1494 C.3     1  UNL1        0.1359
     11 C          63.6248   88.0213   13.1903 C.3     1  UNL1        0.1908
     12 N          64.4511   89.2434   13.4617 N.am    1  UNL1       -0.1863
     13 C          64.1981   90.5059   12.6922 C.2     1  UNL1        0.3191
     14 O          63.1188   90.5463   11.6513 O.2     1  UNL1       -0.2512
     15 N          65.0245   91.7280   12.9636 N.am    1  UNL1       -0.2836
     16 H          65.7329   91.7015   13.6468 H       1  UNL1        0.1513
     17 C          66.3568   90.4251   14.7740 C.3     1  UNL1        0.1188
     18 C          66.6875   92.6831   16.0158 C.2     1  UNL1       -0.0034
     19 C          65.8228   91.5095   15.6622 C.2     1  UNL1       -0.0071
     20 C          63.3044   84.2743   14.4578 C.3     1  UNL1        0.0556
     21 C          63.1210   82.9418   13.7939 C.ar    1  UNL1       -0.0198
     22 C          62.1917   81.9275   14.3918 C.ar    1  UNL1       -0.0011
     23 C          62.0084   80.5950   13.7279 C.ar    1  UNL1        0.0363
     24 C          62.7542   80.2768   12.4660 C.ar    1  UNL1        0.1337
     25 O          62.5709   78.9443   11.8021 O.3     1  UNL1       -0.5055
     26 C          63.6836   81.2911   11.8680 C.ar    1  UNL1        0.0363
     27 C          63.8669   82.6236   12.5320 C.ar    1  UNL1       -0.0011
     28 H          61.9904   78.3106   12.1756 H       1  UNL1        0.2922
     29 C          60.6398   86.8801   10.8371 C.3     1  UNL1        0.1217
     30 C          60.3183   88.1686   10.1396 C.ar    1  UNL1        0.0135
     31 C          59.9441   89.3812   10.9393 C.ar    1  UNL1       -0.0012
     32 C          59.6227   90.6697   10.2418 C.ar    1  UNL1       -0.0002
     33 C          59.6754   90.7455    8.7447 C.ar    1  UNL1        0.0015
     34 C          60.0497   89.5329    7.9450 C.ar    1  UNL1        0.0170
     35 C          60.1848   89.3068    6.4683 C.ar    1  UNL1        0.0186
     36 C          60.5898   87.8786    6.2532 C.ar    1  UNL1        0.0759
     37 N          60.7049   87.2221    7.5968 N.ar    1  UNL1       -0.3242
     38 C          61.0868   85.7938    7.8504 C.3     1  UNL1        0.1305
     39 C          60.3711   88.2444    8.6425 C.ar    1  UNL1        0.0575
     40 C          59.9552   90.3295    5.3952 C.ar    1  UNL1        0.0015
     41 C          61.1076   90.8252    4.5728 C.ar    1  UNL1        0.0002
     42 C          60.8780   91.8478    3.4997 C.ar    1  UNL1        0.0046
     43 C          59.4961   92.3747    3.2490 C.ar    1  UNL1        0.0546
     44 C          58.3438   91.8789    4.0714 C.ar    1  UNL1        0.0046
     45 C          58.5734   90.8563    5.1445 C.ar    1  UNL1        0.0002
     46 C          59.2666   93.3973    2.1759 C.2     1  UNL1        0.2588
     47 O          59.7027   94.8168    2.3871 O.2     1  UNL1       -0.2689
     48 N          58.6009   93.0004    0.8915 N.am    1  UNL1       -0.2463
     49 H          58.3147   92.0687    0.7529 H       1  UNL1        0.1693
     50 N          58.3715   94.0230   -0.1815 N.3     1  UNL1       -0.2325
     51 H          59.1993   94.0154   -0.7774 H       1  UNL1        0.1449
     52 C          57.1833   93.9039   -1.0893 C.3     1  UNL1        0.0585
     53 C          57.1216   95.3981   -1.2046 C.3     1  UNL1        0.0174
     54 C          57.2450   92.4096   -0.9739 C.3     1  UNL1        0.0174
     55 C          55.9951   93.7847   -1.9970 C.3     1  UNL1        0.0174
     56 C          64.7715   92.9905   12.1941 C.3     1  UNL1        0.1177
     57 C          65.7619   93.4543   11.1674 C.ar    1  UNL1       -0.0025
     58 C          65.7233   94.8703   10.6741 C.ar    1  UNL1       -0.0026
     59 C          66.7136   95.3341    9.6474 C.ar    1  UNL1       -0.0003
     60 C          67.7426   94.3819    9.1141 C.ar    1  UNL1       -0.0000
     61 C          67.7812   92.9658    9.6074 C.ar    1  UNL1       -0.0003
     62 C          66.7909   92.5020   10.6341 C.ar    1  UNL1       -0.0026
@<TRIPOS>BOND
     1    18    19    2
     2    19    17    1
     3    17     1    1
     4     1     2    1
     5     2     3    1
     6     3     4    2
     7     3     5   am
     8     5     6    1
     9     6    20    1
    10    20    21    1
    11    21    22   ar
    12    22    23   ar
    13    23    24   ar
    14    24    25    1
    15    24    26   ar
    16    26    27   ar
    17     6     7    1
    18     7     8    2
    19     7     9   am
    20     9    29    1
    21    29    30    1
    22    30    31   ar
    23    31    32   ar
    24    32    33   ar
    25    33    34   ar
    26    34    35   ar
    27    35    40    1
    28    40    41   ar
    29    41    42   ar
    30    42    43   ar
    31    43    46    1
    32    46    47    2
    33    46    48   am
    34    48    50    1
    35    50    52    1
    36    52    53    1
    37    52    54    1
    38    52    55    1
    39    43    44   ar
    40    44    45   ar
    41    35    36   ar
    42    36    37   ar
    43    37    38    1
    44    37    39   ar
    45     9    10    1
    46    11    10    1
    47    11    12    1
    48    12    13   am
    49    13    14    2
    50    13    15   am
    51    15    56    1
    52    56    57    1
    53    57    58   ar
    54    58    59   ar
    55    59    60   ar
    56    60    61   ar
    57    61    62   ar
    58    12     1    1
    59    62    57   ar
    60    11     5    1
    61    27    21   ar
    62    39    30   ar
    63    39    34   ar
    64    45    40   ar
    65    25    28    1
    66    48    49    1
    67    50    51    1
    68    15    16    1
@<TRIPOS>MOLECULE
*****
 62 68 0 0 0
SMALL
GASTEIGER

@<TRIPOS>ATOM
      1 N          65.3932   89.7994   13.8441 N.3     1  UNL1       -0.1862
      2 C          65.7982   88.6876   14.7660 C.3     1  UNL1        0.1775
      3 C          65.0559   87.3844   14.7406 C.2     1  UNL1        0.2452
      4 O          65.4610   86.2725   15.6625 O.2     1  UNL1       -0.2732
      5 N          63.9087   87.1929   13.7935 N.am    1  UNL1       -0.2541
      6 C          63.1665   85.8897   13.7681 C.3     1  UNL1        0.1577
      7 C          62.0193   85.6982   12.8210 C.2     1  UNL1        0.2445
      8 O          61.2770   84.3950   12.7956 O.2     1  UNL1       -0.2731
      9 N          61.6142   86.8101   11.8990 N.am    1  UNL1       -0.2705
     10 C          62.3564   88.1133   11.9244 C.3     1  UNL1        0.1359
     11 C          63.5037   88.3047   12.8716 C.3     1  UNL1        0.1908
     12 N          64.2459   89.6080   12.8970 N.am    1  UNL1       -0.1863
     13 C          63.8409   90.7198   11.9750 C.2     1  UNL1        0.3191
     14 O          62.6937   90.5284   11.0279 O.2     1  UNL1       -0.2512
     15 N          64.5831   92.0231   12.0004 N.am    1  UNL1       -0.2836
     16 H          65.3361   92.1487   12.6221 H       1  UNL1        0.1513
     17 C          66.1354   91.1027   13.8695 C.3     1  UNL1        0.1188
     18 C          67.0559   92.4357   15.9006 C.2     1  UNL1       -0.0034
     19 C          67.2075   91.3355   14.8924 C.2     1  UNL1       -0.0071
     20 C          63.5715   84.7779   14.6900 C.3     1  UNL1        0.0556
     21 C          63.2963   83.3525   14.3122 C.ar    1  UNL1       -0.0198
     22 C          64.2304   82.6275   13.3893 C.ar    1  UNL1       -0.0011
     23 C          63.9552   81.2022   13.0116 C.ar    1  UNL1        0.0363
     24 C          62.7460   80.5019   13.5566 C.ar    1  UNL1        0.1337
     25 O          62.4708   79.0766   13.1789 O.3     1  UNL1       -0.5055
     26 C          61.8118   81.2269   14.4796 C.ar    1  UNL1        0.0363
     27 C          62.0870   82.6523   14.8573 C.ar    1  UNL1       -0.0011
     28 H          63.0543   78.6236   12.6024 H       1  UNL1        0.2922
     29 C          60.4670   86.6186   10.9519 C.3     1  UNL1        0.1217
     30 C          60.6381   86.9286    9.4942 C.ar    1  UNL1        0.0135
     31 C          61.1924   85.8885    8.5663 C.ar    1  UNL1       -0.0012
     32 C          61.3635   86.1984    7.1087 C.ar    1  UNL1       -0.0002
     33 C          60.9803   87.5484    6.5790 C.ar    1  UNL1        0.0015
     34 C          60.4260   88.5885    7.5069 C.ar    1  UNL1        0.0170
     35 C          59.9641   89.9966    7.2751 C.ar    1  UNL1        0.0186
     36 C          59.5075   90.5569    8.5894 C.ar    1  UNL1        0.0759
     37 N          59.6872   89.4952    9.6335 N.ar    1  UNL1       -0.3242
     38 C          59.3572   89.6268   11.0908 C.3     1  UNL1        0.1305
     39 C          60.2549   88.2786    8.9645 C.ar    1  UNL1        0.0575
     40 C          59.9595   90.7178    5.9597 C.ar    1  UNL1        0.0015
     41 C          58.6770   91.2694    5.4113 C.ar    1  UNL1        0.0002
     42 C          58.6725   91.9905    4.0960 C.ar    1  UNL1        0.0046
     43 C          59.9505   92.1601    3.3293 C.ar    1  UNL1        0.0546
     44 C          61.2331   91.6085    3.8777 C.ar    1  UNL1        0.0046
     45 C          61.2375   90.8873    5.1930 C.ar    1  UNL1        0.0002
     46 C          59.9460   92.8812    2.0140 C.2     1  UNL1        0.2588
     47 O          60.8842   94.0289    1.7847 O.2     1  UNL1       -0.2689
     48 N          59.0032   92.4548    0.9280 N.am    1  UNL1       -0.2463
     49 H          58.3873   91.7016    1.0785 H       1  UNL1        0.1693
     50 N          58.9987   93.1760   -0.3872 N.3     1  UNL1       -0.2325
     51 H          59.2116   92.4824   -1.1041 H       1  UNL1        0.1449
     52 C          57.7669   93.9026   -0.8398 C.3     1  UNL1        0.0585
     53 C          58.4219   95.2132   -0.5182 C.3     1  UNL1        0.0174
     54 C          57.1120   92.5920   -1.1615 C.3     1  UNL1        0.0174
     55 C          56.5352   94.6292   -1.2925 C.3     1  UNL1        0.0174
     56 C          64.1781   93.1349   11.0785 C.3     1  UNL1        0.1177
     57 C          65.2260   93.9820   10.4194 C.ar    1  UNL1       -0.0025
     58 C          66.5018   93.3572    9.9379 C.ar    1  UNL1       -0.0026
     59 C          67.5496   94.2043    9.2788 C.ar    1  UNL1       -0.0003
     60 C          67.3217   95.6761    9.1012 C.ar    1  UNL1       -0.0000
     61 C          66.0459   96.3010    9.5828 C.ar    1  UNL1       -0.0003
     62 C          64.9980   95.4539   10.2419 C.ar    1  UNL1       -0.0026
@<TRIPOS>BOND
     1    18    19    2
     2    19    17    1
     3    17     1    1
     4     1     2    1
     5     2     3    1
     6     3     4    2
     7     3     5   am
     8     5     6    1
     9     6    20    1
    10    20    21    1
    11    21    22   ar
    12    22    23   ar
    13    23    24   ar
    14    24    25    1
    15    24    26   ar
    16    26    27   ar
    17     6     7    1
    18     7     8    2
    19     7     9   am
    20     9    29    1
    21    29    30    1
    22    30    31   ar
    23    31    32   ar
    24    32    33   ar
    25    33    34   ar
    26    34    35   ar
    27    35    40    1
    28    40    41   ar
    29    41    42   ar
    30    42    43   ar
    31    43    46    1
    32    46    47    2
    33    46    48   am
    34    48    50    1
    35    50    52    1
    36    52    53    1
    37    52    54    1
    38    52    55    1
    39    43    44   ar
    40    44    45   ar
    41    35    36   ar
    42    36    37   ar
    43    37    38    1
    44    37    39   ar
    45     9    10    1
    46    11    10    1
    47    11    12    1
    48    12    13   am
    49    13    14    2
    50    13    15   am
    51    15    56    1
    52    56    57    1
    53    57    58   ar
    54    58    59   ar
    55    59    60   ar
    56    60    61   ar
    57    61    62   ar
    58    12     1    1
    59    62    57   ar
    60    11     5    1
    61    27    21   ar
    62    39    30   ar
    63    39    34   ar
    64    45    40   ar
    65    25    28    1
    66    48    49    1
    67    50    51    1
    68    15    16    1
@<TRIPOS>MOLECULE
*****
 62 68 0 0 0
SMALL
GASTEIGER

@<TRIPOS>ATOM
      1 N          64.5380   83.1400   13.3488 N.3     1  UNL1       -0.1862
      2 C          65.1513   83.9945   14.4181 C.3     1  UNL1        0.1775
      3 C          64.7434   85.4313   14.5560 C.2     1  UNL1        0.2452
      4 O          65.3568   86.2859   15.6254 O.2     1  UNL1       -0.2732
      5 N          63.7221   86.0137   13.6245 N.am    1  UNL1       -0.2541
      6 C          63.3141   87.4505   13.7623 C.3     1  UNL1        0.1577
      7 C          62.2928   88.0329   12.8308 C.2     1  UNL1        0.2445
      8 O          61.8848   89.4697   12.9686 O.2     1  UNL1       -0.2731
      9 N          61.6794   87.1783   11.7614 N.am    1  UNL1       -0.2705
     10 C          62.0873   85.7415   11.6235 C.3     1  UNL1        0.1359
     11 C          63.1087   85.1592   12.5551 C.3     1  UNL1        0.1908
     12 N          63.5167   83.7223   12.4173 N.am    1  UNL1       -0.1863
     13 C          62.9033   82.8678   11.3479 C.2     1  UNL1        0.3191
     14 O          61.8820   83.4501   10.4164 O.2     1  UNL1       -0.2512
     15 N          63.3112   81.4309   11.2100 N.am    1  UNL1       -0.2836
     16 H          63.9816   81.0487   11.8214 H       1  UNL1        0.1513
     17 C          64.9459   81.7031   13.2110 C.3     1  UNL1        0.1188
     18 C          62.7778   80.5737   14.0905 C.2     1  UNL1       -0.0034
     19 C          64.2751   80.6499   14.0420 C.2     1  UNL1       -0.0071
     20 C          63.9275   88.3051   14.8316 C.3     1  UNL1        0.0556
     21 C          64.4707   89.6606   14.4889 C.ar    1  UNL1       -0.0198
     22 C          64.5216   90.1084   13.0582 C.ar    1  UNL1       -0.0011
     23 C          65.0648   91.4639   12.7155 C.ar    1  UNL1        0.0363
     24 C          65.5572   92.3716   13.8034 C.ar    1  UNL1        0.1337
     25 O          66.1005   93.7271   13.4606 O.3     1  UNL1       -0.5055
     26 C          65.5064   91.9238   15.2341 C.ar    1  UNL1        0.0363
     27 C          64.9631   90.5683   15.5769 C.ar    1  UNL1       -0.0011
     28 H          66.1322   94.0068   12.5669 H       1  UNL1        0.2922
     29 C          60.6581   87.7607   10.8298 C.3     1  UNL1        0.1217
     30 C          61.0342   88.8880    9.9145 C.ar    1  UNL1        0.0135
     31 C          62.0642   89.8906   10.3433 C.ar    1  UNL1       -0.0012
     32 C          62.4403   91.0178    9.4281 C.ar    1  UNL1       -0.0002
     33 C          61.7864   91.1425    8.0839 C.ar    1  UNL1        0.0015
     34 C          60.7564   90.1399    7.6550 C.ar    1  UNL1        0.0170
     35 C          59.9480   90.0062    6.3986 C.ar    1  UNL1        0.0186
     36 C          59.0723   88.7963    6.5374 C.ar    1  UNL1        0.0759
     37 N          59.3395   88.1823    7.8796 N.ar    1  UNL1       -0.3242
     38 C          58.6813   86.9536    8.4337 C.3     1  UNL1        0.1305
     39 C          60.3803   89.0127    8.5703 C.ar    1  UNL1        0.0575
     40 C          60.0053   90.9217    5.2117 C.ar    1  UNL1        0.0015
     41 C          61.3025   91.1315    4.4882 C.ar    1  UNL1        0.0002
     42 C          61.3597   92.0470    3.3014 C.ar    1  UNL1        0.0046
     43 C          60.1198   92.7527    2.8380 C.ar    1  UNL1        0.0546
     44 C          58.8227   92.5428    3.5614 C.ar    1  UNL1        0.0046
     45 C          58.7654   91.6274    4.7483 C.ar    1  UNL1        0.0002
     46 C          60.1771   93.6681    1.6512 C.2     1  UNL1        0.2588
     47 O          59.9016   95.1329    1.8199 O.2     1  UNL1       -0.2689
     48 N          60.5099   93.1189    0.2956 N.am    1  UNL1       -0.2463
     49 H          60.6907   92.1575    0.1848 H       1  UNL1        0.1693
     50 N          60.5672   94.0344   -0.8912 N.3     1  UNL1       -0.2325
     51 H          60.7825   94.9655   -0.5347 H       1  UNL1        0.1449
     52 C          61.5367   93.7615   -2.0028 C.3     1  UNL1        0.0585
     53 C          60.4079   93.7742   -2.9905 C.3     1  UNL1        0.0174
     54 C          62.6656   93.7488   -1.0151 C.3     1  UNL1        0.0174
     55 C          62.5063   93.4886   -3.1143 C.3     1  UNL1        0.0174
     56 C          62.6979   80.5764   10.1407 C.3     1  UNL1        0.1177
     57 C          63.0793   79.1303   10.0255 C.ar    1  UNL1       -0.0025
     58 C          62.5183   78.1276   10.9897 C.ar    1  UNL1       -0.0026
     59 C          62.8996   76.6814   10.8745 C.ar    1  UNL1       -0.0003
     60 C          63.8420   76.2380    9.7951 C.ar    1  UNL1       -0.0000
     61 C          64.4031   77.2407    8.8308 C.ar    1  UNL1       -0.0003
     62 C          64.0217   78.6869    8.9460 C.ar    1  UNL1       -0.0026
@<TRIPOS>BOND
     1    18    19    2
     2    19    17    1
     3    17     1    1
     4     1     2    1
     5     2     3    1
     6     3     4    2
     7     3     5   am
     8     5     6    1
     9     6    20    1
    10    20    21    1
    11    21    22   ar
    12    22    23   ar
    13    23    24   ar
    14    24    25    1
    15    24    26   ar
    16    26    27   ar
    17     6     7    1
    18     7     8    2
    19     7     9   am
    20     9    29    1
    21    29    30    1
    22    30    31   ar
    23    31    32   ar
    24    32    33   ar
    25    33    34   ar
    26    34    35   ar
    27    35    40    1
    28    40    41   ar
    29    41    42   ar
    30    42    43   ar
    31    43    46    1
    32    46    47    2
    33    46    48   am
    34    48    50    1
    35    50    52    1
    36    52    53    1
    37    52    54    1
    38    52    55    1
    39    43    44   ar
    40    44    45   ar
    41    35    36   ar
    42    36    37   ar
    43    37    38    1
    44    37    39   ar
    45     9    10    1
    46    11    10    1
    47    11    12    1
    48    12    13   am
    49    13    14    2
    50    13    15   am
    51    15    56    1
    52    56    57    1
    53    57    58   ar
    54    58    59   ar
    55    59    60   ar
    56    60    61   ar
    57    61    62   ar
    58    12     1    1
    59    62    57   ar
    60    11     5    1
    61    27    21   ar
    62    39    30   ar
    63    39    34   ar
    64    45    40   ar
    65    25    28    1
    66    48    49    1
    67    50    51    1
    68    15    16    1
