@<TRIPOS>MOLECULE
*****
 31 35 0 0 0
SMALL
GASTEIGER

@<TRIPOS>ATOM
      1 C          62.9808   90.9105   11.5811 C.3     1  UNL1        0.0749
      2 C          64.2696   91.6733   11.4975 C.3     1  UNL1        0.0444
      3 C          65.1638   91.7685   12.6980 C.ar    1  UNL1       -0.0101
      4 C          64.7693   91.1009   13.9820 C.ar    1  UNL1       -0.0091
      5 C          65.6636   91.1962   15.1825 C.ar    1  UNL1       -0.0032
      6 C          66.9524   91.9590   15.0990 C.ar    1  UNL1        0.0010
      7 C          67.3470   92.6266   13.8150 C.ar    1  UNL1        0.0142
      8 C          66.4527   92.5314   12.6145 C.ar    1  UNL1        0.0436
      9 C          63.4805   90.3381   14.0655 C.3     1  UNL1        0.0954
     10 N          62.5862   90.2429   12.8651 N.3     1  UNL1       -0.2934
     11 H          61.6854   90.6366   13.1369 H       1  UNL1        0.1236
     12 N          66.8473   93.1990   11.3305 N.pl3   1  UNL1       -0.3049
     13 C          67.6507   92.4477   10.3106 C.3     1  UNL1        0.1079
     14 C          68.0452   93.1153    9.0266 C.3     1  UNL1        0.0903
     15 N          67.6364   94.5342    8.7626 N.3     1  UNL1       -0.2946
     16 C          66.8330   95.2854    9.7825 C.3     1  UNL1        0.0903
     17 C          66.4385   94.6178   11.0665 C.3     1  UNL1        0.1079
     18 H          67.0880   94.5274    7.9026 H       1  UNL1        0.1233
     19 C          62.0864   90.8152   10.3805 C.3     1  UNL1        0.0886
     20 C          59.6582   90.5630   11.2695 C.3     1  UNL1        0.0899
     21 N          60.8060   90.0379   10.4590 N.3     1  UNL1       -0.2667
     22 C          60.6733   88.7354    9.7269 C.3     1  UNL1        0.0978
     23 C          59.8835   88.6678    8.4535 C.3     1  UNL1        0.0224
     24 C          59.7507   87.3653    7.7215 C.3     1  UNL1        0.0065
     25 C          60.4079   86.1304    8.2629 C.3     1  UNL1        0.0277
     26 C          61.1977   86.1979    9.5363 C.ar    1  UNL1       -0.0073
     27 C          61.8548   84.9630   10.0777 C.ar    1  UNL1       -0.0015
     28 C          62.6446   85.0305   11.3511 C.ar    1  UNL1        0.0203
     29 C          62.7774   86.3330   12.0831 C.ar    1  UNL1        0.0985
     30 N          62.1203   87.5680   11.5417 N.ar    1  UNL1       -0.2471
     31 C          61.3304   87.5004   10.2684 C.ar    1  UNL1        0.0695
@<TRIPOS>BOND
     1    20    21    1
     2    21    19    1
     3     1    19    1
     4     1     2    1
     5     2     3    1
     6     3     4   ar
     7     4     5   ar
     8     5     6   ar
     9     6     7   ar
    10     7     8   ar
    11     8    12    1
    12    12    13    1
    13    13    14    1
    14    14    15    1
    15    15    16    1
    16    16    17    1
    17     4     9    1
    18     9    10    1
    19    22    21    1
    20    22    23    1
    21    23    24    1
    22    24    25    1
    23    25    26    1
    24    26    27   ar
    25    27    28   ar
    26    28    29   ar
    27    29    30   ar
    28    30    31   ar
    29    10     1    1
    30    31    22    1
    31     8     3   ar
    32    17    12    1
    33    31    26   ar
    34    15    18    1
    35    10    11    1
@<TRIPOS>MOLECULE
*****
 31 35 0 0 0
SMALL
GASTEIGER

@<TRIPOS>ATOM
      1 C          61.0774   87.0679   10.4725 C.3     1  UNL1        0.0749
      2 C          61.8167   86.3376   11.5541 C.3     1  UNL1        0.0444
      3 C          62.7358   85.2058   11.2018 C.ar    1  UNL1       -0.0101
      4 C          62.9156   84.8043    9.7677 C.ar    1  UNL1       -0.0091
      5 C          63.8347   83.6725    9.4154 C.ar    1  UNL1       -0.0032
      6 C          64.5741   82.9422   10.4970 C.ar    1  UNL1        0.0010
      7 C          64.3943   83.3437   11.9310 C.ar    1  UNL1        0.0142
      8 C          63.4752   84.4755   12.2834 C.ar    1  UNL1        0.0436
      9 C          62.1762   85.5346    8.6861 C.3     1  UNL1        0.0954
     10 N          61.2571   86.6664    9.0385 N.3     1  UNL1       -0.2934
     11 H          60.3336   86.4169    8.6846 H       1  UNL1        0.1236
     12 N          63.2954   84.8770   13.7175 N.pl3   1  UNL1       -0.3049
     13 C          62.2873   84.1693   14.5737 C.3     1  UNL1        0.1079
     14 C          62.1076   84.5709   16.0078 C.3     1  UNL1        0.0903
     15 N          62.9359   85.6800   16.5856 N.3     1  UNL1       -0.2946
     16 C          63.9439   86.3876   15.7293 C.3     1  UNL1        0.0903
     17 C          64.1237   85.9861   14.2953 C.3     1  UNL1        0.1079
     18 H          63.4459   85.2856   17.3759 H       1  UNL1        0.1233
     19 C          60.1582   88.1998   10.8249 C.3     1  UNL1        0.0886
     20 C          59.7802   89.4517   13.0698 C.3     1  UNL1        0.0899
     21 N          60.5881   89.2314   11.8253 N.3     1  UNL1       -0.2667
     22 C          61.8259   90.0428   11.5812 C.3     1  UNL1        0.0978
     23 C          62.1005   90.5997   10.2158 C.3     1  UNL1        0.0224
     24 C          63.3383   91.4111    9.9717 C.3     1  UNL1        0.0065
     25 C          64.3014   91.6656   11.0931 C.3     1  UNL1        0.0277
     26 C          64.0269   91.1087   12.4586 C.ar    1  UNL1       -0.0073
     27 C          64.9900   91.3632   13.5799 C.ar    1  UNL1       -0.0015
     28 C          64.7154   90.8063   14.9453 C.ar    1  UNL1        0.0203
     29 C          63.4777   89.9949   15.1894 C.ar    1  UNL1        0.0985
     30 N          62.5145   89.7404   14.0681 N.ar    1  UNL1       -0.2471
     31 C          62.7891   90.2973   12.7026 C.ar    1  UNL1        0.0695
@<TRIPOS>BOND
     1    20    21    1
     2    21    19    1
     3     1    19    1
     4     1     2    1
     5     2     3    1
     6     3     4   ar
     7     4     5   ar
     8     5     6   ar
     9     6     7   ar
    10     7     8   ar
    11     8    12    1
    12    12    13    1
    13    13    14    1
    14    14    15    1
    15    15    16    1
    16    16    17    1
    17     4     9    1
    18     9    10    1
    19    22    21    1
    20    22    23    1
    21    23    24    1
    22    24    25    1
    23    25    26    1
    24    26    27   ar
    25    27    28   ar
    26    28    29   ar
    27    29    30   ar
    28    30    31   ar
    29    10     1    1
    30    31    22    1
    31     8     3   ar
    32    17    12    1
    33    31    26   ar
    34    15    18    1
    35    10    11    1
@<TRIPOS>MOLECULE
*****
 31 35 0 0 0
SMALL
GASTEIGER

@<TRIPOS>ATOM
      1 C          63.1849   90.9532   12.3238 C.3     1  UNL1        0.0749
      2 C          64.4510   91.7117   12.0564 C.3     1  UNL1        0.0444
      3 C          65.4086   91.9914   13.1765 C.ar    1  UNL1       -0.0101
      4 C          65.1000   91.5126   14.5642 C.ar    1  UNL1       -0.0091
      5 C          66.0576   91.7923   15.6844 C.ar    1  UNL1       -0.0032
      6 C          67.3237   92.5509   15.4169 C.ar    1  UNL1        0.0010
      7 C          67.6323   93.0297   14.0293 C.ar    1  UNL1        0.0142
      8 C          66.6747   92.7500   12.9091 C.ar    1  UNL1        0.0436
      9 C          63.8339   90.7540   14.8316 C.3     1  UNL1        0.0954
     10 N          62.8764   90.4743   13.7114 N.3     1  UNL1       -0.2934
     11 H          61.9841   90.8922   13.9755 H       1  UNL1        0.1236
     12 N          66.9833   93.2288   11.5215 N.pl3   1  UNL1       -0.3049
     13 C          67.7692   92.3592   10.5854 C.3     1  UNL1        0.1079
     14 C          68.0778   92.8380    9.1978 C.3     1  UNL1        0.0903
     15 N          67.6004   94.1865    8.7462 N.3     1  UNL1       -0.2946
     16 C          66.8145   95.0561    9.6823 C.3     1  UNL1        0.0903
     17 C          66.5060   94.5772   11.0699 C.3     1  UNL1        0.1079
     18 H          67.0142   94.0319    7.9259 H       1  UNL1        0.1233
     19 C          62.2273   90.6734   11.2036 C.3     1  UNL1        0.0886
     20 C          59.8647   89.9776   12.0305 C.3     1  UNL1        0.0899
     21 N          61.1646   89.6278   11.3689 N.3     1  UNL1       -0.2667
     22 C          61.4018   88.2323   10.8725 C.3     1  UNL1        0.0978
     23 C          62.2962   87.3049   11.6406 C.3     1  UNL1        0.0224
     24 C          62.5334   85.9095   11.1442 C.3     1  UNL1        0.0065
     25 C          61.8762   85.4414    9.8797 C.3     1  UNL1        0.0277
     26 C          60.9818   86.3688    9.1115 C.ar    1  UNL1       -0.0073
     27 C          60.3247   85.9007    7.8470 C.ar    1  UNL1       -0.0015
     28 C          59.4303   86.8281    7.0789 C.ar    1  UNL1        0.0203
     29 C          59.1931   88.2236    7.5753 C.ar    1  UNL1        0.0985
     30 N          59.8503   88.6917    8.8398 N.ar    1  UNL1       -0.2471
     31 C          60.7446   87.7643    9.6079 C.ar    1  UNL1        0.0695
@<TRIPOS>BOND
     1    20    21    1
     2    21    19    1
     3     1    19    1
     4     1     2    1
     5     2     3    1
     6     3     4   ar
     7     4     5   ar
     8     5     6   ar
     9     6     7   ar
    10     7     8   ar
    11     8    12    1
    12    12    13    1
    13    13    14    1
    14    14    15    1
    15    15    16    1
    16    16    17    1
    17     4     9    1
    18     9    10    1
    19    22    21    1
    20    22    23    1
    21    23    24    1
    22    24    25    1
    23    25    26    1
    24    26    27   ar
    25    27    28   ar
    26    28    29   ar
    27    29    30   ar
    28    30    31   ar
    29    10     1    1
    30    31    22    1
    31     8     3   ar
    32    17    12    1
    33    31    26   ar
    34    15    18    1
    35    10    11    1
@<TRIPOS>MOLECULE
*****
 31 35 0 0 0
SMALL
GASTEIGER

@<TRIPOS>ATOM
      1 C          63.8735   91.6754   10.8841 C.3     1  UNL1        0.0749
      2 C          64.1238   91.2117   12.2884 C.3     1  UNL1        0.0444
      3 C          65.1140   91.9355   13.1519 C.ar    1  UNL1       -0.0101
      4 C          65.8538   93.1230   12.6111 C.ar    1  UNL1       -0.0091
      5 C          66.8440   93.8468   13.4746 C.ar    1  UNL1       -0.0032
      6 C          67.0943   93.3831   14.8790 C.ar    1  UNL1        0.0010
      7 C          66.3545   92.1956   15.4199 C.ar    1  UNL1        0.0142
      8 C          65.3644   91.4718   14.5564 C.ar    1  UNL1        0.0436
      9 C          65.6035   93.5867   11.2067 C.3     1  UNL1        0.0954
     10 N          64.6133   92.8629   10.3432 N.3     1  UNL1       -0.2934
     11 H          65.1206   92.5430    9.5182 H       1  UNL1        0.1236
     12 N          64.6245   90.2843   15.0972 N.pl3   1  UNL1       -0.3049
     13 C          63.6822   90.4502   16.2525 C.3     1  UNL1        0.1079
     14 C          62.9424   89.2627   16.7933 C.3     1  UNL1        0.0903
     15 N          63.1449   87.9093   16.1789 N.3     1  UNL1       -0.2946
     16 C          64.0873   87.7434   15.0238 C.3     1  UNL1        0.0903
     17 C          64.8271   88.9309   14.4829 C.3     1  UNL1        0.1079
     18 H          62.2298   87.5905   15.8606 H       1  UNL1        0.1233
     19 C          62.8833   90.9516   10.0205 C.3     1  UNL1        0.0886
     20 C          60.7058   90.8800   11.4359 C.3     1  UNL1        0.0899
     21 N          61.7687   90.1702   10.6506 N.3     1  UNL1       -0.2667
     22 C          61.7169   88.6792   10.4956 C.3     1  UNL1        0.0978
     23 C          62.5089   87.8012   11.4186 C.3     1  UNL1        0.0224
     24 C          62.4571   86.3101   11.2635 C.3     1  UNL1        0.0065
     25 C          61.6134   85.6970   10.1855 C.3     1  UNL1        0.0277
     26 C          60.8214   86.5750    9.2624 C.ar    1  UNL1       -0.0073
     27 C          59.9776   85.9619    8.1844 C.ar    1  UNL1       -0.0015
     28 C          59.1857   86.8399    7.2615 C.ar    1  UNL1        0.0203
     29 C          59.2374   88.3309    7.4165 C.ar    1  UNL1        0.0985
     30 N          60.0811   88.9440    8.4945 N.ar    1  UNL1       -0.2471
     31 C          60.8731   88.0661    9.4175 C.ar    1  UNL1        0.0695
@<TRIPOS>BOND
     1    20    21    1
     2    21    19    1
     3     1    19    1
     4     1     2    1
     5     2     3    1
     6     3     4   ar
     7     4     5   ar
     8     5     6   ar
     9     6     7   ar
    10     7     8   ar
    11     8    12    1
    12    12    13    1
    13    13    14    1
    14    14    15    1
    15    15    16    1
    16    16    17    1
    17     4     9    1
    18     9    10    1
    19    22    21    1
    20    22    23    1
    21    23    24    1
    22    24    25    1
    23    25    26    1
    24    26    27   ar
    25    27    28   ar
    26    28    29   ar
    27    29    30   ar
    28    30    31   ar
    29    10     1    1
    30    31    22    1
    31     8     3   ar
    32    17    12    1
    33    31    26   ar
    34    15    18    1
    35    10    11    1
@<TRIPOS>MOLECULE
*****
 31 35 0 0 0
SMALL
GASTEIGER

@<TRIPOS>ATOM
      1 C          64.2717   86.5273   14.5843 C.3     1  UNL1        0.0749
      2 C          63.6661   85.9372   13.3454 C.3     1  UNL1        0.0444
      3 C          63.2658   84.4918   13.3216 C.ar    1  UNL1       -0.0101
      4 C          63.4711   83.6365   14.5366 C.ar    1  UNL1       -0.0091
      5 C          63.0708   82.1911   14.5127 C.ar    1  UNL1       -0.0032
      6 C          62.4652   81.6010   13.2738 C.ar    1  UNL1        0.0010
      7 C          62.2599   82.4562   12.0588 C.ar    1  UNL1        0.0142
      8 C          62.6602   83.9016   12.0826 C.ar    1  UNL1        0.0436
      9 C          64.0767   84.2267   15.7756 C.3     1  UNL1        0.0954
     10 N          64.4770   85.6720   15.7994 N.3     1  UNL1       -0.2934
     11 H          65.4742   85.6979   16.0126 H       1  UNL1        0.1236
     12 N          62.4549   84.7569   10.8675 N.pl3   1  UNL1       -0.3049
     13 C          61.4190   85.8418   10.8803 C.3     1  UNL1        0.1079
     14 C          61.2137   86.6970    9.6653 C.3     1  UNL1        0.0903
     15 N          62.0443   86.4674    8.4374 N.3     1  UNL1       -0.2946
     16 C          63.0800   85.3825    8.4247 C.3     1  UNL1        0.0903
     17 C          63.2853   84.5273    9.6398 C.3     1  UNL1        0.1079
     18 H          62.5317   87.3422    8.2438 H       1  UNL1        0.1233
     19 C          64.6721   87.9727   14.6082 C.3     1  UNL1        0.0886
     20 C          62.6931   89.4002   15.5004 C.3     1  UNL1        0.0899
     21 N          63.6404   89.0403   14.3944 N.3     1  UNL1       -0.2667
     22 C          63.5560   89.7481   13.0746 C.3     1  UNL1        0.0978
     23 C          62.6330   89.2383   12.0078 C.3     1  UNL1        0.0224
     24 C          62.5486   89.9461   10.6880 C.3     1  UNL1        0.0065
     25 C          63.3871   91.1638   10.4350 C.3     1  UNL1        0.0277
     26 C          64.3101   91.6737   11.5018 C.ar    1  UNL1       -0.0073
     27 C          65.1486   92.8914   11.2488 C.ar    1  UNL1       -0.0015
     28 C          66.0716   93.4013   12.3156 C.ar    1  UNL1        0.0203
     29 C          66.1560   92.6935   13.6354 C.ar    1  UNL1        0.0985
     30 N          65.3175   91.4758   13.8884 N.ar    1  UNL1       -0.2471
     31 C          64.3945   90.9659   12.8216 C.ar    1  UNL1        0.0695
@<TRIPOS>BOND
     1    20    21    1
     2    21    19    1
     3     1    19    1
     4     1     2    1
     5     2     3    1
     6     3     4   ar
     7     4     5   ar
     8     5     6   ar
     9     6     7   ar
    10     7     8   ar
    11     8    12    1
    12    12    13    1
    13    13    14    1
    14    14    15    1
    15    15    16    1
    16    16    17    1
    17     4     9    1
    18     9    10    1
    19    22    21    1
    20    22    23    1
    21    23    24    1
    22    24    25    1
    23    25    26    1
    24    26    27   ar
    25    27    28   ar
    26    28    29   ar
    27    29    30   ar
    28    30    31   ar
    29    10     1    1
    30    31    22    1
    31     8     3   ar
    32    17    12    1
    33    31    26   ar
    34    15    18    1
    35    10    11    1
@<TRIPOS>MOLECULE
*****
 31 35 0 0 0
SMALL
GASTEIGER

@<TRIPOS>ATOM
      1 C          62.5784   90.0496   10.7641 C.3     1  UNL1        0.0749
      2 C          63.1160   89.8009   12.1421 C.3     1  UNL1        0.0444
      3 C          64.1631   90.7101   12.7140 C.ar    1  UNL1       -0.0101
      4 C          64.6725   91.8679   11.9079 C.ar    1  UNL1       -0.0091
      5 C          65.7196   92.7771   12.4798 C.ar    1  UNL1       -0.0032
      6 C          66.2572   92.5284   13.8579 C.ar    1  UNL1        0.0010
      7 C          65.7478   91.3705   14.6640 C.ar    1  UNL1        0.0142
      8 C          64.7008   90.4614   14.0922 C.ar    1  UNL1        0.0436
      9 C          64.1349   92.1166   10.5298 C.3     1  UNL1        0.0954
     10 N          63.0878   91.2075    9.9579 N.3     1  UNL1       -0.2934
     11 H          63.4730   90.8198    9.0967 H       1  UNL1        0.1236
     12 N          64.1914   89.3035   14.8983 N.pl3   1  UNL1       -0.3049
     13 C          64.5598   87.9014   14.5129 C.3     1  UNL1        0.1079
     14 C          64.0504   86.7436   15.3190 C.3     1  UNL1        0.0903
     15 N          63.1725   86.9878   16.5106 N.3     1  UNL1       -0.2946
     16 C          62.8042   88.3899   16.8960 C.3     1  UNL1        0.0903
     17 C          63.3136   89.5477   16.0899 C.3     1  UNL1        0.1079
     18 H          63.6463   86.5763   17.3147 H       1  UNL1        0.1233
     19 C          61.5313   89.1404   10.1921 C.3     1  UNL1        0.0886
     20 C          60.3805   87.6118   11.9497 C.3     1  UNL1        0.0899
     21 N          61.3127   87.7808   10.7866 N.3     1  UNL1       -0.2667
     22 C          62.0262   86.5901   10.2182 C.3     1  UNL1        0.0978
     23 C          62.3116   86.5185    8.7473 C.3     1  UNL1        0.0224
     24 C          63.0251   85.3278    8.1789 C.3     1  UNL1        0.0065
     25 C          63.4532   84.2087    9.0812 C.3     1  UNL1        0.0277
     26 C          63.1679   84.2803   10.5522 C.ar    1  UNL1       -0.0073
     27 C          63.5961   83.1612   11.4545 C.ar    1  UNL1       -0.0015
     28 C          63.3107   83.2328   12.9254 C.ar    1  UNL1        0.0203
     29 C          62.5972   84.4235   13.4938 C.ar    1  UNL1        0.0985
     30 N          62.1690   85.5426   12.5915 N.ar    1  UNL1       -0.2471
     31 C          62.4544   85.4710   11.1206 C.ar    1  UNL1        0.0695
@<TRIPOS>BOND
     1    20    21    1
     2    21    19    1
     3     1    19    1
     4     1     2    1
     5     2     3    1
     6     3     4   ar
     7     4     5   ar
     8     5     6   ar
     9     6     7   ar
    10     7     8   ar
    11     8    12    1
    12    12    13    1
    13    13    14    1
    14    14    15    1
    15    15    16    1
    16    16    17    1
    17     4     9    1
    18     9    10    1
    19    22    21    1
    20    22    23    1
    21    23    24    1
    22    24    25    1
    23    25    26    1
    24    26    27   ar
    25    27    28   ar
    26    28    29   ar
    27    29    30   ar
    28    30    31   ar
    29    10     1    1
    30    31    22    1
    31     8     3   ar
    32    17    12    1
    33    31    26   ar
    34    15    18    1
    35    10    11    1
@<TRIPOS>MOLECULE
*****
 31 35 0 0 0
SMALL
GASTEIGER

@<TRIPOS>ATOM
      1 C          63.2633   89.0191   12.8428 C.3     1  UNL1        0.0749
      2 C          63.1167   87.6920   12.1594 C.3     1  UNL1        0.0444
      3 C          62.0645   87.5024   11.1073 C.ar    1  UNL1       -0.0101
      4 C          61.1589   88.6400   10.7386 C.ar    1  UNL1       -0.0091
      5 C          60.1067   88.4504    9.6865 C.ar    1  UNL1       -0.0032
      6 C          59.9600   87.1233    9.0031 C.ar    1  UNL1        0.0010
      7 C          60.8656   85.9857    9.3717 C.ar    1  UNL1        0.0142
      8 C          61.9178   86.1752   10.4238 C.ar    1  UNL1        0.0436
      9 C          61.3056   89.9672   11.4221 C.3     1  UNL1        0.0954
     10 N          62.3578   90.1567   12.4741 N.3     1  UNL1       -0.2934
     11 H          61.8740   90.4364   13.3274 H       1  UNL1        0.1236
     12 N          62.8233   85.0376   10.7924 N.pl3   1  UNL1       -0.3049
     13 C          63.5055   84.2436    9.7181 C.3     1  UNL1        0.1079
     14 C          64.4110   83.1060   10.0867 C.3     1  UNL1        0.0903
     15 N          64.6343   82.7625   11.5297 N.3     1  UNL1       -0.2946
     16 C          63.9522   83.5565   12.6040 C.3     1  UNL1        0.0903
     17 C          63.0466   84.6941   12.2353 C.3     1  UNL1        0.1079
     18 H          65.6373   82.8391   11.6989 H       1  UNL1        0.1233
     19 C          64.3156   89.2088   13.8949 C.3     1  UNL1        0.0886
     20 C          63.1916   90.4151   15.9028 C.3     1  UNL1        0.0899
     21 N          64.2391   90.3793   14.8297 N.3     1  UNL1       -0.2667
     22 C          65.2102   91.5142   14.6914 C.3     1  UNL1        0.0978
     23 C          66.0033   91.9717   15.8795 C.3     1  UNL1        0.0224
     24 C          66.9743   93.1066   15.7413 C.3     1  UNL1        0.0065
     25 C          67.1522   93.7840   14.4149 C.3     1  UNL1        0.0277
     26 C          66.3591   93.3266   13.2266 C.ar    1  UNL1       -0.0073
     27 C          66.5370   94.0040   11.9003 C.ar    1  UNL1       -0.0015
     28 C          65.7439   93.5466   10.7121 C.ar    1  UNL1        0.0203
     29 C          64.7729   92.4117   10.8504 C.ar    1  UNL1        0.0985
     30 N          64.5950   91.7342   12.1768 N.ar    1  UNL1       -0.2471
     31 C          65.3881   92.1917   13.3649 C.ar    1  UNL1        0.0695
@<TRIPOS>BOND
     1    20    21    1
     2    21    19    1
     3     1    19    1
     4     1     2    1
     5     2     3    1
     6     3     4   ar
     7     4     5   ar
     8     5     6   ar
     9     6     7   ar
    10     7     8   ar
    11     8    12    1
    12    12    13    1
    13    13    14    1
    14    14    15    1
    15    15    16    1
    16    16    17    1
    17     4     9    1
    18     9    10    1
    19    22    21    1
    20    22    23    1
    21    23    24    1
    22    24    25    1
    23    25    26    1
    24    26    27   ar
    25    27    28   ar
    26    28    29   ar
    27    29    30   ar
    28    30    31   ar
    29    10     1    1
    30    31    22    1
    31     8     3   ar
    32    17    12    1
    33    31    26   ar
    34    15    18    1
    35    10    11    1
@<TRIPOS>MOLECULE
*****
 31 35 0 0 0
SMALL
GASTEIGER

@<TRIPOS>ATOM
      1 C          64.2694   86.0149   14.7873 C.3     1  UNL1        0.0749
      2 C          63.7414   85.4117   13.5195 C.3     1  UNL1        0.0444
      3 C          63.1061   84.0532   13.5431 C.ar    1  UNL1       -0.0101
      4 C          62.9987   83.2977   14.8345 C.ar    1  UNL1       -0.0091
      5 C          62.3634   81.9391   14.8581 C.ar    1  UNL1       -0.0032
      6 C          61.8354   81.3360   13.5902 C.ar    1  UNL1        0.0010
      7 C          61.9428   82.0914   12.2988 C.ar    1  UNL1        0.0142
      8 C          62.5781   83.4500   12.2752 C.ar    1  UNL1        0.0436
      9 C          63.5267   83.9009   16.1023 C.3     1  UNL1        0.0954
     10 N          64.1620   85.2594   16.0788 N.3     1  UNL1       -0.2934
     11 H          65.1116   85.1466   16.4337 H       1  UNL1        0.1236
     12 N          62.6855   84.2054   10.9838 N.pl3   1  UNL1       -0.3049
     13 C          63.6459   83.7492    9.9256 C.3     1  UNL1        0.1079
     14 C          63.7532   84.5046    8.6342 C.3     1  UNL1        0.0903
     15 N          62.9002   85.7163    8.4009 N.3     1  UNL1       -0.2946
     16 C          61.9399   86.1724    9.4590 C.3     1  UNL1        0.0903
     17 C          61.8325   85.4170   10.7505 C.3     1  UNL1        0.1079
     18 H          62.3489   85.5313    7.5629 H       1  UNL1        0.1233
     19 C          64.9047   87.3735   14.7638 C.3     1  UNL1        0.0886
     20 C          62.9679   88.6728   15.9087 C.3     1  UNL1        0.0899
     21 N          64.0517   88.6024   14.8740 N.3     1  UNL1       -0.2667
     22 C          64.2824   89.7609   13.9496 C.3     1  UNL1        0.0978
     23 C          65.3258   90.7870   14.2790 C.3     1  UNL1        0.0224
     24 C          65.5565   91.9456   13.3545 C.3     1  UNL1        0.0065
     25 C          64.7438   92.0780   12.1008 C.3     1  UNL1        0.0277
     26 C          63.7004   91.0520   11.7714 C.ar    1  UNL1       -0.0073
     27 C          62.8877   91.1844   10.5176 C.ar    1  UNL1       -0.0015
     28 C          61.8443   90.1584   10.1883 C.ar    1  UNL1        0.0203
     29 C          61.6136   88.9998   11.1127 C.ar    1  UNL1        0.0985
     30 N          62.4263   88.8673   12.3665 N.ar    1  UNL1       -0.2471
     31 C          63.4697   89.8934   12.6958 C.ar    1  UNL1        0.0695
@<TRIPOS>BOND
     1    20    21    1
     2    21    19    1
     3     1    19    1
     4     1     2    1
     5     2     3    1
     6     3     4   ar
     7     4     5   ar
     8     5     6   ar
     9     6     7   ar
    10     7     8   ar
    11     8    12    1
    12    12    13    1
    13    13    14    1
    14    14    15    1
    15    15    16    1
    16    16    17    1
    17     4     9    1
    18     9    10    1
    19    22    21    1
    20    22    23    1
    21    23    24    1
    22    24    25    1
    23    25    26    1
    24    26    27   ar
    25    27    28   ar
    26    28    29   ar
    27    29    30   ar
    28    30    31   ar
    29    10     1    1
    30    31    22    1
    31     8     3   ar
    32    17    12    1
    33    31    26   ar
    34    15    18    1
    35    10    11    1
@<TRIPOS>MOLECULE
*****
 31 35 0 0 0
SMALL
GASTEIGER

@<TRIPOS>ATOM
      1 C          61.4467   89.5366   11.7068 C.3     1  UNL1        0.0749
      2 C          61.7182   88.1433   11.2219 C.3     1  UNL1        0.0444
      3 C          61.0974   87.6592    9.9452 C.ar    1  UNL1       -0.0101
      4 C          60.2050   88.5684    9.1532 C.ar    1  UNL1       -0.0091
      5 C          59.5842   88.0843    7.8764 C.ar    1  UNL1       -0.0032
      6 C          59.8557   86.6910    7.3916 C.ar    1  UNL1        0.0010
      7 C          60.7480   85.7818    8.1835 C.ar    1  UNL1        0.0142
      8 C          61.3688   86.2659    9.4603 C.ar    1  UNL1        0.0436
      9 C          59.9336   89.9617    9.6381 C.3     1  UNL1        0.0954
     10 N          60.5544   90.4457   10.9148 N.3     1  UNL1       -0.2934
     11 H          59.7878   90.7159   11.5311 H       1  UNL1        0.1236
     12 N          62.2611   85.3567   10.2522 N.pl3   1  UNL1       -0.3049
     13 C          62.1392   85.3010   11.7463 C.3     1  UNL1        0.1079
     14 C          63.0315   84.3919   12.5382 C.3     1  UNL1        0.0903
     15 N          64.0458   83.5384   11.8361 N.3     1  UNL1       -0.2946
     16 C          64.1677   83.5941   10.3422 C.3     1  UNL1        0.0903
     17 C          63.2754   84.5033    9.5502 C.3     1  UNL1        0.1079
     18 H          63.8344   82.5704   12.0784 H       1  UNL1        0.1233
     19 C          62.0676   90.0207   12.9836 C.3     1  UNL1        0.0886
     20 C          64.2290   88.8438   13.8163 C.3     1  UNL1        0.0899
     21 N          63.5587   90.0060   13.1452 N.3     1  UNL1       -0.2667
     22 C          64.3798   91.1533   12.6358 C.3     1  UNL1        0.0978
     23 C          64.2982   91.5510   11.1918 C.3     1  UNL1        0.0224
     24 C          65.1193   92.6983   10.6824 C.3     1  UNL1        0.0065
     25 C          66.0218   93.4480   11.6169 C.3     1  UNL1        0.0277
     26 C          66.1034   93.0502   13.0610 C.ar    1  UNL1       -0.0073
     27 C          67.0060   93.7999   13.9955 C.ar    1  UNL1       -0.0015
     28 C          67.0875   93.4022   15.4395 C.ar    1  UNL1        0.0203
     29 C          66.2665   92.2548   15.9489 C.ar    1  UNL1        0.0985
     30 N          65.3639   91.5052   15.0144 N.ar    1  UNL1       -0.2471
     31 C          65.2824   91.9029   13.5704 C.ar    1  UNL1        0.0695
@<TRIPOS>BOND
     1    20    21    1
     2    21    19    1
     3     1    19    1
     4     1     2    1
     5     2     3    1
     6     3     4   ar
     7     4     5   ar
     8     5     6   ar
     9     6     7   ar
    10     7     8   ar
    11     8    12    1
    12    12    13    1
    13    13    14    1
    14    14    15    1
    15    15    16    1
    16    16    17    1
    17     4     9    1
    18     9    10    1
    19    22    21    1
    20    22    23    1
    21    23    24    1
    22    24    25    1
    23    25    26    1
    24    26    27   ar
    25    27    28   ar
    26    28    29   ar
    27    29    30   ar
    28    30    31   ar
    29    10     1    1
    30    31    22    1
    31     8     3   ar
    32    17    12    1
    33    31    26   ar
    34    15    18    1
    35    10    11    1
