@<TRIPOS>MOLECULE
*****
 38 42 0 0 0
SMALL
GASTEIGER

@<TRIPOS>ATOM
      1 C          63.2608   86.7355   15.8537 C.3     1  UNL1        0.1083
      2 C          62.6181   86.5035   17.1890 C.3     1  UNL1        0.0456
      3 C          62.5003   87.6315   18.1707 C.3     1  UNL1        0.0902
      4 N          63.0252   88.9915   17.8171 N.pl3   1  UNL1       -0.3181
      5 C          63.6678   89.2235   16.4818 C.ar    1  UNL1        0.1311
      6 C          64.2725   90.4461   15.8577 C.ar    1  UNL1        0.1034
      7 C          64.7640   90.0738   14.4903 C.ar    1  UNL1        0.1080
      8 N          64.4631   88.6210   14.2692 N.ar    1  UNL1       -0.1681
      9 N          63.7856   88.0955   15.5001 N.ar    1  UNL1       -0.2397
     10 H          62.9478   89.7318   18.4614 H       1  UNL1        0.1482
     11 C          63.7322   82.2237   11.9267 C.2     1  UNL1        0.2492
     12 O          64.8454   82.2176   10.9213 O.2     1  UNL1       -0.2699
     13 N          63.6143   83.3516   12.9084 N.am    1  UNL1       -0.2761
     14 C          62.5011   83.3576   13.9138 C.3     1  UNL1        0.0938
     15 C          62.3833   84.4856   14.8955 C.3     1  UNL1        0.0235
     16 C          63.3786   85.6075   14.8719 C.3     1  UNL1        0.0260
     17 C          64.4918   85.6015   13.8666 C.3     1  UNL1        0.0235
     18 C          64.6097   84.4736   12.8849 C.3     1  UNL1        0.0938
     19 C          62.7016   80.1547   13.1131 C.2     1  UNL1        0.0048
     20 C          62.7368   81.1018   11.9503 C.2     1  UNL1        0.0579
     21 C          65.4381   90.9929   13.5151 C.ar    1  UNL1        0.0198
     22 C          64.6867   91.5002   12.3201 C.ar    1  UNL1        0.0047
     23 C          65.3607   92.4193   11.3450 C.ar    1  UNL1        0.0375
     24 C          66.7862   92.8311   11.5650 C.ar    1  UNL1        0.1453
     25 C          67.5376   92.3239   12.7600 C.ar    1  UNL1        0.0375
     26 C          66.8635   91.4048   13.7350 C.ar    1  UNL1        0.0047
     27 O          67.4603   93.7503   10.5898 O.3     1  UNL1       -0.4535
     28 C          66.6588   94.7854    9.8577 C.ar    1  UNL1        0.1453
     29 C          66.8826   95.0086    8.3914 C.ar    1  UNL1        0.0375
     30 C          66.0811   96.0437    7.6593 C.ar    1  UNL1        0.0031
     31 C          65.0556   96.8558    8.3936 C.ar    1  UNL1        0.0002
     32 C          64.8317   96.6326    9.8599 C.ar    1  UNL1        0.0031
     33 C          65.6333   95.5974   10.5920 C.ar    1  UNL1        0.0375
     34 C          64.3687   91.8029   16.4900 C.2     1  UNL1        0.2470
     35 N          65.7127   92.4213   16.7377 N.am    1  UNL1       -0.3252
     36 O          63.1211   92.5413   16.8747 O.2     1  UNL1       -0.2702
     37 H          66.5316   91.9367   16.4852 H       1  UNL1        0.1453
     38 H          65.7758   93.3118   17.1527 H       1  UNL1        0.1453
@<TRIPOS>BOND
     1    19    20    2
     2    20    11    1
     3    11    12    2
     4    11    13   am
     5    13    14    1
     6    14    15    1
     7    15    16    1
     8     1    16    1
     9     1     2    1
    10     2     3    1
    11     3     4    1
    12     4     5    1
    13     5     6   ar
    14     6    34    1
    15    34    35   am
    16    34    36    2
    17     6     7   ar
    18     7    21    1
    19    21    22   ar
    20    22    23   ar
    21    23    24   ar
    22    24    27    1
    23    27    28    1
    24    28    29   ar
    25    29    30   ar
    26    30    31   ar
    27    31    32   ar
    28    32    33   ar
    29    24    25   ar
    30    25    26   ar
    31     7     8   ar
    32     8     9   ar
    33    16    17    1
    34    17    18    1
    35    18    13    1
    36     9     1    1
    37     9     5   ar
    38    26    21   ar
    39    33    28   ar
    40     4    10    1
    41    35    37    1
    42    35    38    1
@<TRIPOS>MOLECULE
*****
 38 42 0 0 0
SMALL
GASTEIGER

@<TRIPOS>ATOM
      1 C          63.1449   86.1993   16.0949 C.3     1  UNL1        0.1083
      2 C          62.7897   85.8594   17.5120 C.3     1  UNL1        0.0456
      3 C          62.7219   86.9416   18.5484 C.3     1  UNL1        0.0902
      4 N          63.0093   88.3637   18.1676 N.pl3   1  UNL1       -0.3181
      5 C          63.3645   88.7036   16.7505 C.ar    1  UNL1        0.1311
      6 C          63.6964   90.0055   16.0835 C.ar    1  UNL1        0.1034
      7 C          63.9693   89.7279   14.6349 C.ar    1  UNL1        0.1080
      8 N          63.8062   88.2544   14.4066 N.ar    1  UNL1       -0.1681
      9 N          63.4323   87.6214   15.7141 N.ar    1  UNL1       -0.2397
     10 H          62.9647   89.0741   18.8478 H       1  UNL1        0.1482
     11 C          63.4163   81.8703   11.9492 C.2     1  UNL1        0.2492
     12 O          62.7708   80.5414   12.2091 O.2     1  UNL1       -0.2699
     13 N          63.3485   82.9525   12.9856 N.am    1  UNL1       -0.2761
     14 C          63.9940   84.2813   12.7257 C.3     1  UNL1        0.0938
     15 C          63.9261   85.3636   13.7622 C.3     1  UNL1        0.0235
     16 C          63.2128   85.1170   15.0584 C.3     1  UNL1        0.0260
     17 C          62.5673   83.7882   15.3183 C.3     1  UNL1        0.0235
     18 C          62.6351   82.7059   14.2819 C.3     1  UNL1        0.0938
     19 C          63.8153   83.3410    9.8449 C.2     1  UNL1        0.0048
     20 C          64.1296   82.1168   10.6530 C.2     1  UNL1        0.0579
     21 C          64.3404   90.7453   13.5969 C.ar    1  UNL1        0.0198
     22 C          63.6218   90.7700   12.2805 C.ar    1  UNL1        0.0047
     23 C          63.9928   91.7874   11.2426 C.ar    1  UNL1        0.0375
     24 C          65.0824   92.7799   11.5210 C.ar    1  UNL1        0.1453
     25 C          65.8010   92.7552   12.8374 C.ar    1  UNL1        0.0375
     26 C          65.4300   91.7378   13.8754 C.ar    1  UNL1        0.0047
     27 O          65.4535   93.7973   10.4830 O.3     1  UNL1       -0.4535
     28 C          66.6697   93.5894    9.6302 C.ar    1  UNL1        0.1453
     29 C          67.0289   94.5961    8.5778 C.ar    1  UNL1        0.0375
     30 C          68.2452   94.3882    7.7250 C.ar    1  UNL1        0.0031
     31 C          69.1024   93.1735    7.9245 C.ar    1  UNL1        0.0002
     32 C          68.7432   92.1667    8.9768 C.ar    1  UNL1        0.0031
     33 C          67.5269   92.3747    9.8296 C.ar    1  UNL1        0.0375
     34 C          63.7465   91.3492   16.7485 C.2     1  UNL1        0.2470
     35 N          65.0540   91.8926   17.2437 N.am    1  UNL1       -0.3252
     36 O          62.4892   92.1494   16.9182 O.2     1  UNL1       -0.2702
     37 H          65.8792   91.3674   17.1323 H       1  UNL1        0.1453
     38 H          65.0868   92.7745   17.6801 H       1  UNL1        0.1453
@<TRIPOS>BOND
     1    19    20    2
     2    20    11    1
     3    11    12    2
     4    11    13   am
     5    13    14    1
     6    14    15    1
     7    15    16    1
     8     1    16    1
     9     1     2    1
    10     2     3    1
    11     3     4    1
    12     4     5    1
    13     5     6   ar
    14     6    34    1
    15    34    35   am
    16    34    36    2
    17     6     7   ar
    18     7    21    1
    19    21    22   ar
    20    22    23   ar
    21    23    24   ar
    22    24    27    1
    23    27    28    1
    24    28    29   ar
    25    29    30   ar
    26    30    31   ar
    27    31    32   ar
    28    32    33   ar
    29    24    25   ar
    30    25    26   ar
    31     7     8   ar
    32     8     9   ar
    33    16    17    1
    34    17    18    1
    35    18    13    1
    36     9     1    1
    37     9     5   ar
    38    26    21   ar
    39    33    28   ar
    40     4    10    1
    41    35    37    1
    42    35    38    1
@<TRIPOS>MOLECULE
*****
 38 42 0 0 0
SMALL
GASTEIGER

@<TRIPOS>ATOM
      1 C          65.6104   92.4535   14.0340 C.3     1  UNL1        0.1083
      2 C          65.7206   93.3200   15.2534 C.3     1  UNL1        0.0456
      3 C          65.1852   92.8360   16.5683 C.3     1  UNL1        0.0902
      4 N          64.5396   91.4854   16.6638 N.pl3   1  UNL1       -0.3181
      5 C          64.4294   90.6189   15.4445 C.ar    1  UNL1        0.1311
      6 C          63.8490   89.2519   15.2337 C.ar    1  UNL1        0.1034
      7 C          64.0256   88.8911   13.7885 C.ar    1  UNL1        0.1080
      8 N          64.7153   90.0350   13.1061 N.ar    1  UNL1       -0.1681
      9 N          64.9648   91.1029   14.1296 N.ar    1  UNL1       -0.2397
     10 H          64.1882   91.1678   17.5269 H       1  UNL1        0.1482
     11 C          67.7522   94.3893    8.7742 C.2     1  UNL1        0.2492
     12 O          68.4121   93.4259    7.8328 O.2     1  UNL1       -0.2699
     13 N          67.2167   93.9054   10.0891 N.am    1  UNL1       -0.2761
     14 C          66.5567   94.8688   11.0305 C.3     1  UNL1        0.0938
     15 C          66.0213   94.3848   12.3455 C.3     1  UNL1        0.0235
     16 C          66.1459   92.9375   12.7191 C.3     1  UNL1        0.0260
     17 C          66.8059   91.9740   11.7777 C.3     1  UNL1        0.0235
     18 C          67.3413   92.4580   10.4627 C.3     1  UNL1        0.0938
     19 C          66.3964   96.3265    7.6976 C.2     1  UNL1        0.0048
     20 C          67.6276   95.8367    8.4007 C.2     1  UNL1        0.0579
     21 C          63.5892   87.6109   13.1396 C.ar    1  UNL1        0.0198
     22 C          64.0387   86.2945   13.7007 C.ar    1  UNL1        0.0047
     23 C          63.6023   85.0145   13.0519 C.ar    1  UNL1        0.0375
     24 C          62.7165   85.0509   11.8419 C.ar    1  UNL1        0.1453
     25 C          62.2670   86.3674   11.2808 C.ar    1  UNL1        0.0375
     26 C          62.7034   87.6474   11.9297 C.ar    1  UNL1        0.0047
     27 O          62.2801   83.7708   11.1931 O.3     1  UNL1       -0.4535
     28 C          62.3338   82.4839   11.9619 C.ar    1  UNL1        0.1453
     29 C          61.9344   82.4566   13.4074 C.ar    1  UNL1        0.0375
     30 C          61.9881   81.1698   14.1762 C.ar    1  UNL1        0.0031
     31 C          62.4414   79.9101   13.4994 C.ar    1  UNL1        0.0002
     32 C          62.8408   79.9374   12.0539 C.ar    1  UNL1        0.0031
     33 C          62.7871   81.2244   11.2851 C.ar    1  UNL1        0.0375
     34 C          63.2049   88.3960   16.2838 C.2     1  UNL1        0.2470
     35 N          61.9704   88.8751   16.9884 N.am    1  UNL1       -0.3252
     36 O          63.7952   87.0611   16.6292 O.2     1  UNL1       -0.2702
     37 H          61.5829   89.7513   16.7617 H       1  UNL1        0.1453
     38 H          61.5477   88.3134   17.6776 H       1  UNL1        0.1453
@<TRIPOS>BOND
     1    19    20    2
     2    20    11    1
     3    11    12    2
     4    11    13   am
     5    13    14    1
     6    14    15    1
     7    15    16    1
     8     1    16    1
     9     1     2    1
    10     2     3    1
    11     3     4    1
    12     4     5    1
    13     5     6   ar
    14     6    34    1
    15    34    35   am
    16    34    36    2
    17     6     7   ar
    18     7    21    1
    19    21    22   ar
    20    22    23   ar
    21    23    24   ar
    22    24    27    1
    23    27    28    1
    24    28    29   ar
    25    29    30   ar
    26    30    31   ar
    27    31    32   ar
    28    32    33   ar
    29    24    25   ar
    30    25    26   ar
    31     7     8   ar
    32     8     9   ar
    33    16    17    1
    34    17    18    1
    35    18    13    1
    36     9     1    1
    37     9     5   ar
    38    26    21   ar
    39    33    28   ar
    40     4    10    1
    41    35    37    1
    42    35    38    1
@<TRIPOS>MOLECULE
*****
 38 42 0 0 0
SMALL
GASTEIGER

@<TRIPOS>ATOM
      1 C          63.7637   85.0763   13.4956 C.3     1  UNL1        0.1083
      2 C          64.6383   85.3936   14.6721 C.3     1  UNL1        0.0456
      3 C          64.9297   86.8217   15.0264 C.3     1  UNL1        0.0902
      4 N          64.3465   87.9325   14.2042 N.pl3   1  UNL1       -0.3181
      5 C          63.4719   87.6152   13.0276 C.ar    1  UNL1        0.1311
      6 C          62.7615   88.4921   12.0396 C.ar    1  UNL1        0.1034
      7 C          62.0310   87.6060   11.0746 C.ar    1  UNL1        0.1080
      8 N          62.2899   86.1814   11.4662 N.ar    1  UNL1       -0.1681
      9 N          63.1805   86.1871   12.6733 N.ar    1  UNL1       -0.2397
     10 H          64.5378   88.8698   14.4368 H       1  UNL1        0.1482
     11 C          62.5980   79.3638   12.0782 C.2     1  UNL1        0.2492
     12 O          62.0716   78.4244   13.1224 O.2     1  UNL1       -0.2699
     13 N          62.8894   80.7919   12.4325 N.am    1  UNL1       -0.2761
     14 C          63.4158   81.7313   11.3883 C.3     1  UNL1        0.0938
     15 C          63.7072   83.1595   11.7426 C.3     1  UNL1        0.0235
     16 C          63.4723   83.6482   13.1412 C.3     1  UNL1        0.0260
     17 C          62.9459   82.7087   14.1854 C.3     1  UNL1        0.0235
     18 C          62.6545   81.2806   13.8311 C.3     1  UNL1        0.0938
     19 C          62.8527   77.4029   10.3930 C.2     1  UNL1        0.0048
     20 C          62.8329   78.8752   10.6796 C.2     1  UNL1        0.0579
     21 C          61.1893   88.0641    9.9206 C.ar    1  UNL1        0.0198
     22 C          60.8332   87.1042    8.8244 C.ar    1  UNL1        0.0047
     23 C          59.9915   87.5623    7.6704 C.ar    1  UNL1        0.0375
     24 C          59.5060   88.9804    7.6127 C.ar    1  UNL1        0.1453
     25 C          59.8620   89.9403    8.7089 C.ar    1  UNL1        0.0375
     26 C          60.7037   89.4822    9.8628 C.ar    1  UNL1        0.0047
     27 O          58.6643   89.4385    6.4586 O.3     1  UNL1       -0.4535
     28 C          59.1775   90.4992    5.5305 C.ar    1  UNL1        0.1453
     29 C          60.6401   90.5666    5.2042 C.ar    1  UNL1        0.0375
     30 C          61.1533   91.6273    4.2761 C.ar    1  UNL1        0.0031
     31 C          60.2040   92.6206    3.6741 C.ar    1  UNL1        0.0002
     32 C          58.7415   92.5531    4.0003 C.ar    1  UNL1        0.0031
     33 C          58.2282   91.4923    4.9285 C.ar    1  UNL1        0.0375
     34 C          62.7785   89.9919   12.0200 C.2     1  UNL1        0.2470
     35 N          62.3714   90.7626   13.2408 N.am    1  UNL1       -0.3252
     36 O          63.2027   90.7210   10.7797 O.2     1  UNL1       -0.2702
     37 H          62.0929   90.2841   14.0548 H       1  UNL1        0.1453
     38 H          62.3826   91.7469   13.2279 H       1  UNL1        0.1453
@<TRIPOS>BOND
     1    19    20    2
     2    20    11    1
     3    11    12    2
     4    11    13   am
     5    13    14    1
     6    14    15    1
     7    15    16    1
     8     1    16    1
     9     1     2    1
    10     2     3    1
    11     3     4    1
    12     4     5    1
    13     5     6   ar
    14     6    34    1
    15    34    35   am
    16    34    36    2
    17     6     7   ar
    18     7    21    1
    19    21    22   ar
    20    22    23   ar
    21    23    24   ar
    22    24    27    1
    23    27    28    1
    24    28    29   ar
    25    29    30   ar
    26    30    31   ar
    27    31    32   ar
    28    32    33   ar
    29    24    25   ar
    30    25    26   ar
    31     7     8   ar
    32     8     9   ar
    33    16    17    1
    34    17    18    1
    35    18    13    1
    36     9     1    1
    37     9     5   ar
    38    26    21   ar
    39    33    28   ar
    40     4    10    1
    41    35    37    1
    42    35    38    1
@<TRIPOS>MOLECULE
*****
 38 42 0 0 0
SMALL
GASTEIGER

@<TRIPOS>ATOM
      1 C          61.2063   94.5982   -6.1184 C.3     1  UNL1        0.1083
      2 C          60.2673   94.7732   -7.2748 C.3     1  UNL1        0.0456
      3 C          58.7880   94.6380   -7.0668 C.3     1  UNL1        0.0902
      4 N          58.2477   94.3278   -5.7023 N.pl3   1  UNL1       -0.3181
      5 C          59.1868   94.1528   -4.5458 C.ar    1  UNL1        0.1311
      6 C          58.9487   93.8446   -3.0973 C.ar    1  UNL1        0.1034
      7 C          60.2808   93.7893   -2.4100 C.ar    1  UNL1        0.1080
      8 N          61.3423   94.0634   -3.4338 N.ar    1  UNL1       -0.1681
      9 N          60.6661   94.2880   -4.7538 N.ar    1  UNL1       -0.2397
     10 H          57.2768   94.2390   -5.5658 H       1  UNL1        0.1482
     11 C          67.1237   95.1389   -6.9503 C.2     1  UNL1        0.2492
     12 O          67.9547   93.9239   -7.2389 O.2     1  UNL1       -0.2699
     13 N          65.6444   95.0038   -6.7423 N.am    1  UNL1       -0.2761
     14 C          64.8135   96.2188   -6.4537 C.3     1  UNL1        0.0938
     15 C          63.3341   96.0836   -6.2457 C.3     1  UNL1        0.0235
     16 C          62.6857   94.7334   -6.3264 C.3     1  UNL1        0.0260
     17 C          63.5166   93.5184   -6.6150 C.3     1  UNL1        0.0235
     18 C          64.9960   93.6535   -6.8229 C.3     1  UNL1        0.0938
     19 C          69.2480   96.6273   -7.0999 C.2     1  UNL1        0.0048
     20 C          67.7721   96.4891   -6.8697 C.2     1  UNL1        0.0579
     21 C          60.5111   93.5092   -0.9545 C.ar    1  UNL1        0.0198
     22 C          60.2710   94.5845    0.0634 C.ar    1  UNL1        0.0047
     23 C          60.5012   94.3043    1.5189 C.ar    1  UNL1        0.0375
     24 C          60.9716   92.9489    1.9565 C.ar    1  UNL1        0.1453
     25 C          61.2117   91.8736    0.9387 C.ar    1  UNL1        0.0375
     26 C          60.9814   92.1537   -0.5168 C.ar    1  UNL1        0.0047
     27 O          61.2018   92.6687    3.4121 O.3     1  UNL1       -0.4535
     28 C          60.1621   91.9380    4.2088 C.ar    1  UNL1        0.1453
     29 C          60.5666   90.8197    5.1230 C.ar    1  UNL1        0.0375
     30 C          59.5269   90.0889    5.9198 C.ar    1  UNL1        0.0031
     31 C          58.0825   90.4764    5.8023 C.ar    1  UNL1        0.0002
     32 C          57.6780   91.5946    4.8881 C.ar    1  UNL1        0.0031
     33 C          58.7178   92.3254    4.0913 C.ar    1  UNL1        0.0375
     34 C          57.6129   93.6294   -2.4497 C.2     1  UNL1        0.2470
     35 N          57.2587   92.2835   -1.8901 N.am    1  UNL1       -0.3252
     36 O          56.6312   94.7601   -2.3616 O.2     1  UNL1       -0.2702
     37 H          57.9030   91.5414   -1.9479 H       1  UNL1        0.1453
     38 H          56.3820   92.1423   -1.4651 H       1  UNL1        0.1453
@<TRIPOS>BOND
     1    19    20    2
     2    20    11    1
     3    11    12    2
     4    11    13   am
     5    13    14    1
     6    14    15    1
     7    15    16    1
     8     1    16    1
     9     1     2    1
    10     2     3    1
    11     3     4    1
    12     4     5    1
    13     5     6   ar
    14     6    34    1
    15    34    35   am
    16    34    36    2
    17     6     7   ar
    18     7    21    1
    19    21    22   ar
    20    22    23   ar
    21    23    24   ar
    22    24    27    1
    23    27    28    1
    24    28    29   ar
    25    29    30   ar
    26    30    31   ar
    27    31    32   ar
    28    32    33   ar
    29    24    25   ar
    30    25    26   ar
    31     7     8   ar
    32     8     9   ar
    33    16    17    1
    34    17    18    1
    35    18    13    1
    36     9     1    1
    37     9     5   ar
    38    26    21   ar
    39    33    28   ar
    40     4    10    1
    41    35    37    1
    42    35    38    1
@<TRIPOS>MOLECULE
*****
 38 42 0 0 0
SMALL
GASTEIGER

@<TRIPOS>ATOM
      1 C          65.0303   91.5231   14.6923 C.3     1  UNL1        0.1083
      2 C          64.7179   92.5180   15.7705 C.3     1  UNL1        0.0456
      3 C          63.9782   92.0831   17.0008 C.3     1  UNL1        0.0902
      4 N          63.5509   90.6533   17.1529 N.pl3   1  UNL1       -0.3181
      5 C          63.8633   89.6584   16.0748 C.ar    1  UNL1        0.1311
      6 C          63.5717   88.1927   15.9464 C.ar    1  UNL1        0.1034
      7 C          64.1311   87.7216   14.6368 C.ar    1  UNL1        0.1080
      8 N          64.7685   88.8963   13.9557 N.ar    1  UNL1       -0.1681
      9 N          64.6030   90.0933   14.8445 N.ar    1  UNL1       -0.2397
     10 H          63.0654   90.3679   17.9605 H       1  UNL1        0.1482
     11 C          67.9891   93.2625    9.7709 C.2     1  UNL1        0.2492
     12 O          69.4783   93.0996    9.6943 O.2     1  UNL1       -0.2699
     13 N          67.2494   92.8276   11.0012 N.am    1  UNL1       -0.2761
     14 C          65.7603   92.9905   11.0779 C.3     1  UNL1        0.0938
     15 C          65.0205   92.5557   12.3082 C.3     1  UNL1        0.0235
     16 C          65.7700   91.9579   13.4619 C.3     1  UNL1        0.0260
     17 C          67.2591   91.7951   13.3853 C.3     1  UNL1        0.0235
     18 C          67.9989   92.2299   12.1550 C.3     1  UNL1        0.0938
     19 C          67.2097   95.3485    8.4327 C.2     1  UNL1        0.0048
     20 C          67.2397   93.8602    8.6172 C.2     1  UNL1        0.0579
     21 C          64.0648   86.3217   14.1021 C.ar    1  UNL1        0.0198
     22 C          64.8363   85.2248   14.7742 C.ar    1  UNL1        0.0047
     23 C          64.7699   83.8250   14.2395 C.ar    1  UNL1        0.0375
     24 C          63.9321   83.5219   13.0328 C.ar    1  UNL1        0.1453
     25 C          63.1607   84.6188   12.3607 C.ar    1  UNL1        0.0375
     26 C          63.2270   86.0187   12.8953 C.ar    1  UNL1        0.0047
     27 O          63.8658   82.1220   12.4981 O.3     1  UNL1       -0.4535
     28 C          62.7861   81.1912   12.9649 C.ar    1  UNL1        0.1453
     29 C          61.6309   81.7219   13.7610 C.ar    1  UNL1        0.0375
     30 C          60.5511   80.7912   14.2278 C.ar    1  UNL1        0.0031
     31 C          60.6266   79.3297   13.8984 C.ar    1  UNL1        0.0002
     32 C          61.7818   78.7990   13.1022 C.ar    1  UNL1        0.0031
     33 C          62.8616   79.7298   12.6355 C.ar    1  UNL1        0.0375
     34 C          62.8477   87.3465   16.9513 C.2     1  UNL1        0.2470
     35 N          62.0042   86.1940   16.4927 N.am    1  UNL1       -0.3252
     36 O          62.9672   87.6527   18.4148 O.2     1  UNL1       -0.2702
     37 H          61.9258   85.9930   15.5322 H       1  UNL1        0.1453
     38 H          61.5290   85.6387   17.1523 H       1  UNL1        0.1453
@<TRIPOS>BOND
     1    19    20    2
     2    20    11    1
     3    11    12    2
     4    11    13   am
     5    13    14    1
     6    14    15    1
     7    15    16    1
     8     1    16    1
     9     1     2    1
    10     2     3    1
    11     3     4    1
    12     4     5    1
    13     5     6   ar
    14     6    34    1
    15    34    35   am
    16    34    36    2
    17     6     7   ar
    18     7    21    1
    19    21    22   ar
    20    22    23   ar
    21    23    24   ar
    22    24    27    1
    23    27    28    1
    24    28    29   ar
    25    29    30   ar
    26    30    31   ar
    27    31    32   ar
    28    32    33   ar
    29    24    25   ar
    30    25    26   ar
    31     7     8   ar
    32     8     9   ar
    33    16    17    1
    34    17    18    1
    35    18    13    1
    36     9     1    1
    37     9     5   ar
    38    26    21   ar
    39    33    28   ar
    40     4    10    1
    41    35    37    1
    42    35    38    1
@<TRIPOS>MOLECULE
*****
 38 42 0 0 0
SMALL
GASTEIGER

@<TRIPOS>ATOM
      1 C          62.6132   88.4483   11.3753 C.3     1  UNL1        0.1083
      2 C          62.6476   87.1836   12.1810 C.3     1  UNL1        0.0456
      3 C          61.8416   85.9955   11.7468 C.3     1  UNL1        0.0902
      4 N          61.0011   86.0721   10.5067 N.pl3   1  UNL1       -0.3181
      5 C          60.9667   87.3368    9.7009 C.ar    1  UNL1        0.1311
      6 C          60.2372   87.7062    8.4434 C.ar    1  UNL1        0.1034
      7 C          60.5925   89.1226    8.1005 C.ar    1  UNL1        0.1080
      8 N          61.5414   89.6286    9.1461 N.ar    1  UNL1       -0.1681
      9 N          61.7727   88.5249   10.1352 N.ar    1  UNL1       -0.2397
     10 H          60.4721   85.2923   10.2217 H       1  UNL1        0.1482
     11 C          65.8374   93.2010   13.1123 C.2     1  UNL1        0.2492
     12 O          66.1046   94.3188   12.1484 O.2     1  UNL1       -0.2699
     13 N          65.0314   92.0128   12.6781 N.am    1  UNL1       -0.2761
     14 C          64.7642   90.8950   13.6419 C.3     1  UNL1        0.0938
     15 C          63.9581   89.7068   13.2076 C.3     1  UNL1        0.0235
     16 C          63.4193   89.6365   11.8096 C.3     1  UNL1        0.0260
     17 C          63.6865   90.7543   10.8457 C.3     1  UNL1        0.0235
     18 C          64.4925   91.9425   11.2799 C.3     1  UNL1        0.0938
     19 C          67.7503   92.7505   14.8117 C.2     1  UNL1        0.0048
     20 C          66.3762   93.2713   14.5103 C.2     1  UNL1        0.0579
     21 C          60.0873   89.8970    6.9192 C.ar    1  UNL1        0.0198
     22 C          58.6119   90.0668    6.7091 C.ar    1  UNL1        0.0047
     23 C          58.1068   90.8412    5.5280 C.ar    1  UNL1        0.0375
     24 C          59.0772   91.4458    4.5569 C.ar    1  UNL1        0.1453
     25 C          60.5526   91.2759    4.7670 C.ar    1  UNL1        0.0375
     26 C          61.0577   90.5016    5.9482 C.ar    1  UNL1        0.0047
     27 O          58.5720   92.2202    3.3757 O.3     1  UNL1       -0.4535
     28 C          59.5426   92.8507    2.4216 C.ar    1  UNL1        0.1453
     29 C          59.9255   92.1358    1.1597 C.ar    1  UNL1        0.0375
     30 C          60.8961   92.7663    0.2055 C.ar    1  UNL1        0.0031
     31 C          61.4838   94.1117    0.5132 C.ar    1  UNL1        0.0002
     32 C          61.1008   94.8265    1.7751 C.ar    1  UNL1        0.0031
     33 C          60.1302   94.1960    2.7293 C.ar    1  UNL1        0.0375
     34 C          59.3146   86.8155    7.6654 C.2     1  UNL1        0.2470
     35 N          59.8435   85.5702    7.0176 N.am    1  UNL1       -0.3252
     36 O          57.8629   87.1700    7.5350 O.2     1  UNL1       -0.2702
     37 H          60.7963   85.3375    7.1031 H       1  UNL1        0.1453
     38 H          59.2379   84.9856    6.5070 H       1  UNL1        0.1453
@<TRIPOS>BOND
     1    19    20    2
     2    20    11    1
     3    11    12    2
     4    11    13   am
     5    13    14    1
     6    14    15    1
     7    15    16    1
     8     1    16    1
     9     1     2    1
    10     2     3    1
    11     3     4    1
    12     4     5    1
    13     5     6   ar
    14     6    34    1
    15    34    35   am
    16    34    36    2
    17     6     7   ar
    18     7    21    1
    19    21    22   ar
    20    22    23   ar
    21    23    24   ar
    22    24    27    1
    23    27    28    1
    24    28    29   ar
    25    29    30   ar
    26    30    31   ar
    27    31    32   ar
    28    32    33   ar
    29    24    25   ar
    30    25    26   ar
    31     7     8   ar
    32     8     9   ar
    33    16    17    1
    34    17    18    1
    35    18    13    1
    36     9     1    1
    37     9     5   ar
    38    26    21   ar
    39    33    28   ar
    40     4    10    1
    41    35    37    1
    42    35    38    1
