@<TRIPOS>MOLECULE
*****
 31 34 0 0 0
SMALL
GASTEIGER

@<TRIPOS>ATOM
      1 C          63.1788   85.2110   15.0523 C.ar    1  UNL1        0.0154
      2 C          62.8715   85.2515   16.5200 C.ar    1  UNL1        0.0985
      3 N          62.9912   86.5415   17.2759 N.ar    1  UNL1       -0.2423
      4 C          63.4182   87.7911   16.5643 C.ar    1  UNL1        0.0985
      5 C          63.7255   87.7505   15.0966 C.ar    1  UNL1        0.0152
      6 C          63.6057   86.4604   14.3407 C.ar    1  UNL1       -0.0188
      7 C          63.9130   86.4199   12.8730 C.3     1  UNL1        0.0311
      8 C          63.7283   82.4232   12.2817 C.ar    1  UNL1        0.1690
      9 C          63.8480   83.7132   13.0376 C.ar    1  UNL1        0.0395
     10 C          63.0591   83.9209   14.2964 C.ar    1  UNL1        0.0074
     11 C          62.1505   82.8385   14.7992 C.ar    1  UNL1        0.0395
     12 C          62.0308   81.5485   14.0433 C.ar    1  UNL1        0.1690
     13 C          62.8197   81.3409   12.7845 C.ar    1  UNL1        0.2074
     14 F          62.7000   80.0508   12.0286 F       1  UNL1       -0.1977
     15 C          64.3315   83.1441    9.8596 C.3     1  UNL1        0.2526
     16 O          64.5172   82.2156   11.0229 O.3     1  UNL1       -0.4691
     17 O          61.1222   80.4660   14.5461 O.3     1  UNL1       -0.4691
     18 C          59.6799   80.4462   14.1345 C.3     1  UNL1        0.2526
     19 C          64.1524   89.0000   14.3849 C.ar    1  UNL1        0.0013
     20 C          65.2899   89.8173   14.9217 C.ar    1  UNL1        0.0013
     21 C          65.7169   91.0669   14.2100 C.ar    1  UNL1        0.0145
     22 C          65.0064   91.4989   12.9616 C.ar    1  UNL1        0.0479
     23 C          63.8689   90.6815   12.4248 C.ar    1  UNL1        0.0145
     24 C          63.4420   89.4321   13.1365 C.ar    1  UNL1        0.0013
     25 N          65.4334   92.7484   12.2499 N.pl3   1  UNL1       -0.3047
     26 C          66.0806   93.8638   13.0159 C.3     1  UNL1        0.1079
     27 C          66.5076   95.1134   12.3042 C.3     1  UNL1        0.0903
     28 N          66.2873   95.2474   10.8265 N.3     1  UNL1       -0.2946
     29 C          65.6400   94.1318   10.0605 C.3     1  UNL1        0.0903
     30 C          65.2130   92.8824   10.7722 C.3     1  UNL1        0.1079
     31 H          67.2033   95.4012   10.4050 H       1  UNL1        0.1233
@<TRIPOS>BOND
     1    15    16    1
     2    16     8    1
     3     8     9   ar
     4     9    10   ar
     5    10     1    1
     6     1     2   ar
     7     2     3   ar
     8     3     4   ar
     9     4     5   ar
    10     5    19    1
    11    19    20   ar
    12    20    21   ar
    13    21    22   ar
    14    22    25    1
    15    25    26    1
    16    26    27    1
    17    27    28    1
    18    28    29    1
    19    29    30    1
    20    22    23   ar
    21    23    24   ar
    22     5     6   ar
    23     6     7    1
    24    10    11   ar
    25    11    12   ar
    26    12    17    1
    27    17    18    1
    28    12    13   ar
    29    13    14    1
    30    13     8   ar
    31     6     1   ar
    32    24    19   ar
    33    30    25    1
    34    28    31    1
@<TRIPOS>MOLECULE
*****
 31 34 0 0 0
SMALL
GASTEIGER

@<TRIPOS>ATOM
      1 C          63.3919   90.5429   11.6471 C.ar    1  UNL1        0.0154
      2 C          62.5038   91.0753   10.5618 C.ar    1  UNL1        0.0985
      3 N          61.5998   90.1450    9.8087 N.ar    1  UNL1       -0.2423
      4 C          61.5838   88.6823   10.1408 C.ar    1  UNL1        0.0985
      5 C          62.4719   88.1499   11.2261 C.ar    1  UNL1        0.0152
      6 C          63.3760   89.0803   11.9793 C.ar    1  UNL1       -0.0188
      7 C          64.2641   88.5479   13.0646 C.3     1  UNL1        0.0311
      8 C          65.2458   92.3552   14.6520 C.ar    1  UNL1        0.1690
      9 C          64.3418   91.4249   13.8988 C.ar    1  UNL1        0.0395
     10 C          64.2960   91.4733   12.4003 C.ar    1  UNL1        0.0074
     11 C          65.1542   92.4519   11.6549 C.ar    1  UNL1        0.0395
     12 C          66.0582   93.3822   12.4081 C.ar    1  UNL1        0.1690
     13 C          66.1040   93.3339   13.9066 C.ar    1  UNL1        0.2074
     14 F          67.0081   94.2642   14.6597 F       1  UNL1       -0.1977
     15 C          64.1194   91.7738   16.9198 C.3     1  UNL1        0.2526
     16 O          65.2916   92.3068   16.1505 O.3     1  UNL1       -0.4691
     17 O          66.9165   94.3610   11.6627 O.3     1  UNL1       -0.4691
     18 C          66.2848   95.5117   10.9370 C.3     1  UNL1        0.2526
     19 C          62.4560   86.6873   11.5583 C.ar    1  UNL1        0.0013
     20 C          62.1715   85.6777   10.4860 C.ar    1  UNL1        0.0013
     21 C          62.1555   84.2150   10.8181 C.ar    1  UNL1        0.0145
     22 C          62.4241   83.7619   12.2226 C.ar    1  UNL1        0.0479
     23 C          62.7086   84.7715   13.2949 C.ar    1  UNL1        0.0145
     24 C          62.7246   86.2341   12.9628 C.ar    1  UNL1        0.0013
     25 N          62.4081   82.2992   12.5548 N.pl3   1  UNL1       -0.3047
     26 C          61.9003   81.8387   13.8889 C.3     1  UNL1        0.1079
     27 C          61.8844   80.3760   14.2211 C.3     1  UNL1        0.0903
     28 N          62.3762   79.3739   13.2191 N.3     1  UNL1       -0.2946
     29 C          62.8841   79.8345   11.8849 C.3     1  UNL1        0.0903
     30 C          62.9000   81.2972   11.5528 C.3     1  UNL1        0.1079
     31 H          61.6013   78.7366   13.0352 H       1  UNL1        0.1233
@<TRIPOS>BOND
     1    15    16    1
     2    16     8    1
     3     8     9   ar
     4     9    10   ar
     5    10     1    1
     6     1     2   ar
     7     2     3   ar
     8     3     4   ar
     9     4     5   ar
    10     5    19    1
    11    19    20   ar
    12    20    21   ar
    13    21    22   ar
    14    22    25    1
    15    25    26    1
    16    26    27    1
    17    27    28    1
    18    28    29    1
    19    29    30    1
    20    22    23   ar
    21    23    24   ar
    22     5     6   ar
    23     6     7    1
    24    10    11   ar
    25    11    12   ar
    26    12    17    1
    27    17    18    1
    28    12    13   ar
    29    13    14    1
    30    13     8   ar
    31     6     1   ar
    32    24    19   ar
    33    30    25    1
    34    28    31    1
@<TRIPOS>MOLECULE
*****
 31 34 0 0 0
SMALL
GASTEIGER

@<TRIPOS>ATOM
      1 C          63.4002   90.5592   11.6655 C.ar    1  UNL1        0.0154
      2 C          62.5067   91.0935   10.5855 C.ar    1  UNL1        0.0985
      3 N          61.5940   90.1656    9.8399 N.ar    1  UNL1       -0.2423
      4 C          61.5746   88.7034   10.1743 C.ar    1  UNL1        0.0985
      5 C          62.4681   88.1692   11.2543 C.ar    1  UNL1        0.0152
      6 C          63.3809   89.0971   11.9998 C.ar    1  UNL1       -0.0188
      7 C          64.2743   88.5628   13.0798 C.3     1  UNL1        0.0311
      8 C          66.0699   93.4010   12.4048 C.ar    1  UNL1        0.1690
      9 C          65.1572   92.4732   11.6593 C.ar    1  UNL1        0.0395
     10 C          64.3130   91.4871   12.4110 C.ar    1  UNL1        0.0074
     11 C          64.3816   91.4290   13.9083 C.ar    1  UNL1        0.0395
     12 C          65.2944   92.3569   14.6538 C.ar    1  UNL1        0.1690
     13 C          66.1386   93.3429   13.9020 C.ar    1  UNL1        0.2074
     14 F          67.0514   94.2708   14.6476 F       1  UNL1       -0.1977
     15 C          66.2668   95.5306   10.9296 C.3     1  UNL1        0.2526
     16 O          66.9141   94.3871   11.6530 O.3     1  UNL1       -0.4691
     17 O          65.3631   92.2987   16.1512 O.3     1  UNL1       -0.4691
     18 C          64.1420   91.9392   16.9446 C.3     1  UNL1        0.2526
     19 C          62.4487   86.7071   11.5886 C.ar    1  UNL1        0.0013
     20 C          62.1479   85.6975   10.5209 C.ar    1  UNL1        0.0013
     21 C          62.1286   84.2353   10.8552 C.ar    1  UNL1        0.0145
     22 C          62.4101   83.7828   12.2574 C.ar    1  UNL1        0.0479
     23 C          62.7109   84.7925   13.3252 C.ar    1  UNL1        0.0145
     24 C          62.7303   86.2546   12.9908 C.ar    1  UNL1        0.0013
     25 N          62.3908   82.3207   12.5918 N.pl3   1  UNL1       -0.3047
     26 C          61.8830   81.8634   13.9270 C.3     1  UNL1        0.1079
     27 C          61.8636   80.4013   14.2615 C.3     1  UNL1        0.0903
     28 N          62.3521   79.3965   13.2606 N.3     1  UNL1       -0.2946
     29 C          62.8599   79.8538   11.9253 C.3     1  UNL1        0.0903
     30 C          62.8792   81.3159   11.5909 C.3     1  UNL1        0.1079
     31 H          61.5754   78.7609   13.0783 H       1  UNL1        0.1233
@<TRIPOS>BOND
     1    15    16    1
     2    16     8    1
     3     8     9   ar
     4     9    10   ar
     5    10     1    1
     6     1     2   ar
     7     2     3   ar
     8     3     4   ar
     9     4     5   ar
    10     5    19    1
    11    19    20   ar
    12    20    21   ar
    13    21    22   ar
    14    22    25    1
    15    25    26    1
    16    26    27    1
    17    27    28    1
    18    28    29    1
    19    29    30    1
    20    22    23   ar
    21    23    24   ar
    22     5     6   ar
    23     6     7    1
    24    10    11   ar
    25    11    12   ar
    26    12    17    1
    27    17    18    1
    28    12    13   ar
    29    13    14    1
    30    13     8   ar
    31     6     1   ar
    32    24    19   ar
    33    30    25    1
    34    28    31    1
@<TRIPOS>MOLECULE
*****
 31 34 0 0 0
SMALL
GASTEIGER

@<TRIPOS>ATOM
      1 C          64.1776   89.9992   15.3248 C.ar    1  UNL1        0.0154
      2 C          63.7242   90.2673   16.7293 C.ar    1  UNL1        0.0985
      3 N          63.1214   89.1632   17.5464 N.ar    1  UNL1       -0.2423
      4 C          62.9720   87.7911   16.9590 C.ar    1  UNL1        0.0985
      5 C          63.4254   87.5230   15.5545 C.ar    1  UNL1        0.0152
      6 C          64.0282   88.6271   14.7374 C.ar    1  UNL1       -0.0188
      7 C          64.4816   88.3591   13.3329 C.3     1  UNL1        0.0311
      8 C          66.3850   93.1370   14.3090 C.ar    1  UNL1        0.1690
      9 C          65.7822   92.0329   15.1260 C.ar    1  UNL1        0.0395
     10 C          64.7804   91.1033   14.5077 C.ar    1  UNL1        0.0074
     11 C          64.3815   91.2778   13.0723 C.ar    1  UNL1        0.0395
     12 C          64.9843   92.3819   12.2553 C.ar    1  UNL1        0.1690
     13 C          65.9861   93.3115   12.8736 C.ar    1  UNL1        0.2074
     14 F          66.5889   94.4156   12.0565 F       1  UNL1       -0.1977
     15 C          68.5192   93.5147   15.7416 C.3     1  UNL1        0.2526
     16 O          67.3868   94.0665   14.9273 O.3     1  UNL1       -0.4691
     17 O          64.5853   92.5564   10.8198 O.3     1  UNL1       -0.4691
     18 C          63.5645   91.6430   10.2087 C.3     1  UNL1        0.2526
     19 C          63.2760   86.1510   14.9672 C.ar    1  UNL1        0.0013
     20 C          63.4761   85.9392   13.4958 C.ar    1  UNL1        0.0013
     21 C          63.3267   84.5671   12.9083 C.ar    1  UNL1        0.0145
     22 C          62.9772   83.4068   13.7923 C.ar    1  UNL1        0.0479
     23 C          62.7770   83.6186   15.2638 C.ar    1  UNL1        0.0145
     24 C          62.9264   84.9906   15.8512 C.ar    1  UNL1        0.0013
     25 N          62.8278   82.0347   13.2050 N.pl3   1  UNL1       -0.3047
     26 C          63.1954   81.7884   11.7717 C.3     1  UNL1        0.1079
     27 C          63.0460   80.4162   11.1843 C.3     1  UNL1        0.0903
     28 N          62.5290   79.2905   12.0301 N.3     1  UNL1       -0.2946
     29 C          62.1614   79.5369   13.4634 C.3     1  UNL1        0.0903
     30 C          62.3108   80.9089   14.0508 C.3     1  UNL1        0.1079
     31 H          63.2490   78.5680   12.0308 H       1  UNL1        0.1233
@<TRIPOS>BOND
     1    15    16    1
     2    16     8    1
     3     8     9   ar
     4     9    10   ar
     5    10     1    1
     6     1     2   ar
     7     2     3   ar
     8     3     4   ar
     9     4     5   ar
    10     5    19    1
    11    19    20   ar
    12    20    21   ar
    13    21    22   ar
    14    22    25    1
    15    25    26    1
    16    26    27    1
    17    27    28    1
    18    28    29    1
    19    29    30    1
    20    22    23   ar
    21    23    24   ar
    22     5     6   ar
    23     6     7    1
    24    10    11   ar
    25    11    12   ar
    26    12    17    1
    27    17    18    1
    28    12    13   ar
    29    13    14    1
    30    13     8   ar
    31     6     1   ar
    32    24    19   ar
    33    30    25    1
    34    28    31    1
@<TRIPOS>MOLECULE
*****
 31 34 0 0 0
SMALL
GASTEIGER

@<TRIPOS>ATOM
      1 C          64.1844   89.9873   15.3205 C.ar    1  UNL1        0.0154
      2 C          63.7272   90.2517   16.7245 C.ar    1  UNL1        0.0985
      3 N          63.1216   89.1457   17.5368 N.ar    1  UNL1       -0.2423
      4 C          62.9732   87.7752   16.9453 C.ar    1  UNL1        0.0985
      5 C          63.4305   87.5108   15.5413 C.ar    1  UNL1        0.0152
      6 C          64.0361   88.6169   14.7290 C.ar    1  UNL1       -0.0188
      7 C          64.4933   88.3525   13.3250 C.3     1  UNL1        0.0311
      8 C          64.9917   92.3855   12.2632 C.ar    1  UNL1        0.1690
      9 C          64.3862   91.2795   13.0756 C.ar    1  UNL1        0.0395
     10 C          64.7901   91.0934   14.5082 C.ar    1  UNL1        0.0074
     11 C          65.7995   92.0133   15.1284 C.ar    1  UNL1        0.0395
     12 C          66.4051   93.1193   14.3160 C.ar    1  UNL1        0.1690
     13 C          66.0012   93.3054   12.8834 C.ar    1  UNL1        0.2074
     14 F          66.6068   94.4115   12.0711 F       1  UNL1       -0.1977
     15 C          63.5838   91.6471   10.2084 C.3     1  UNL1        0.2526
     16 O          64.5878   92.5716   10.8307 O.3     1  UNL1       -0.4691
     17 O          67.4146   94.0393   14.9362 O.3     1  UNL1       -0.4691
     18 C          68.5603   93.4748   15.7226 C.3     1  UNL1        0.2526
     19 C          63.2821   86.1404   14.9498 C.ar    1  UNL1        0.0013
     20 C          62.9482   84.9746   15.8325 C.ar    1  UNL1        0.0013
     21 C          62.7998   83.6042   15.2410 C.ar    1  UNL1        0.0145
     22 C          62.9854   83.3996   13.7666 C.ar    1  UNL1        0.0479
     23 C          63.3194   84.5655   12.8838 C.ar    1  UNL1        0.0145
     24 C          63.4677   85.9359   13.4754 C.ar    1  UNL1        0.0013
     25 N          62.8371   82.0292   13.1751 N.pl3   1  UNL1       -0.3047
     26 C          63.1683   81.7959   11.7308 C.3     1  UNL1        0.1079
     27 C          63.0200   80.4255   11.1392 C.3     1  UNL1        0.0903
     28 N          62.5404   79.2884   11.9918 N.3     1  UNL1       -0.2946
     29 C          62.2091   79.5217   13.4361 C.3     1  UNL1        0.0903
     30 C          62.3575   80.8921   14.0277 C.3     1  UNL1        0.1079
     31 H          63.2691   78.5750   11.9684 H       1  UNL1        0.1233
@<TRIPOS>BOND
     1    15    16    1
     2    16     8    1
     3     8     9   ar
     4     9    10   ar
     5    10     1    1
     6     1     2   ar
     7     2     3   ar
     8     3     4   ar
     9     4     5   ar
    10     5    19    1
    11    19    20   ar
    12    20    21   ar
    13    21    22   ar
    14    22    25    1
    15    25    26    1
    16    26    27    1
    17    27    28    1
    18    28    29    1
    19    29    30    1
    20    22    23   ar
    21    23    24   ar
    22     5     6   ar
    23     6     7    1
    24    10    11   ar
    25    11    12   ar
    26    12    17    1
    27    17    18    1
    28    12    13   ar
    29    13    14    1
    30    13     8   ar
    31     6     1   ar
    32    24    19   ar
    33    30    25    1
    34    28    31    1
@<TRIPOS>MOLECULE
*****
 31 34 0 0 0
SMALL
GASTEIGER

@<TRIPOS>ATOM
      1 C          63.8273   88.5900   15.2256 C.ar    1  UNL1        0.0154
      2 C          63.4538   88.6012   16.6783 C.ar    1  UNL1        0.0985
      3 N          62.9872   87.3397   17.3424 N.ar    1  UNL1       -0.2423
      4 C          62.8941   86.0671   16.5538 C.ar    1  UNL1        0.0985
      5 C          63.2675   86.0560   15.1011 C.ar    1  UNL1        0.0152
      6 C          63.7342   87.3175   14.4370 C.ar    1  UNL1       -0.0188
      7 C          64.1076   87.3064   12.9842 C.3     1  UNL1        0.0311
      8 C          64.3267   91.4276   12.4963 C.ar    1  UNL1        0.1690
      9 C          63.8601   90.1662   13.1604 C.ar    1  UNL1        0.0395
     10 C          64.2939   89.8515   14.5615 C.ar    1  UNL1        0.0074
     11 C          65.1942   90.7983   15.2984 C.ar    1  UNL1        0.0395
     12 C          65.6607   92.0597   14.6343 C.ar    1  UNL1        0.1690
     13 C          65.2270   92.3744   13.2332 C.ar    1  UNL1        0.2074
     14 F          65.6936   93.6359   12.5691 F       1  UNL1       -0.1977
     15 C          62.9279   90.8378   10.3879 C.3     1  UNL1        0.2526
     16 O          63.8930   91.7423   11.0953 O.3     1  UNL1       -0.4691
     17 O          66.5610   93.0066   15.3712 O.3     1  UNL1       -0.4691
     18 C          67.9112   92.5484   15.8370 C.3     1  UNL1        0.2526
     19 C          63.1744   84.7835   14.3125 C.ar    1  UNL1        0.0013
     20 C          62.7652   84.8234   12.8699 C.ar    1  UNL1        0.0013
     21 C          62.6721   83.5508   12.0813 C.ar    1  UNL1        0.0145
     22 C          62.9882   82.2384   12.7352 C.ar    1  UNL1        0.0479
     23 C          63.3975   82.1985   14.1778 C.ar    1  UNL1        0.0145
     24 C          63.4906   83.4710   14.9664 C.ar    1  UNL1        0.0013
     25 N          62.8951   80.9658   11.9466 N.pl3   1  UNL1       -0.3047
     26 C          62.6055   79.6703   12.6448 C.3     1  UNL1        0.1079
     27 C          62.5124   78.3977   11.8562 C.3     1  UNL1        0.0903
     28 N          62.7089   78.4207   10.3693 N.3     1  UNL1       -0.2946
     29 C          62.9985   79.7163    9.6711 C.3     1  UNL1        0.0903
     30 C          63.0916   80.9888   10.4597 C.3     1  UNL1        0.1079
     31 H          61.8558   78.0465    9.9538 H       1  UNL1        0.1233
@<TRIPOS>BOND
     1    15    16    1
     2    16     8    1
     3     8     9   ar
     4     9    10   ar
     5    10     1    1
     6     1     2   ar
     7     2     3   ar
     8     3     4   ar
     9     4     5   ar
    10     5    19    1
    11    19    20   ar
    12    20    21   ar
    13    21    22   ar
    14    22    25    1
    15    25    26    1
    16    26    27    1
    17    27    28    1
    18    28    29    1
    19    29    30    1
    20    22    23   ar
    21    23    24   ar
    22     5     6   ar
    23     6     7    1
    24    10    11   ar
    25    11    12   ar
    26    12    17    1
    27    17    18    1
    28    12    13   ar
    29    13    14    1
    30    13     8   ar
    31     6     1   ar
    32    24    19   ar
    33    30    25    1
    34    28    31    1
@<TRIPOS>MOLECULE
*****
 31 34 0 0 0
SMALL
GASTEIGER

@<TRIPOS>ATOM
      1 C          61.6309   93.6934   -2.1240 C.ar    1  UNL1        0.0154
      2 C          61.8786   93.1484   -0.7486 C.ar    1  UNL1        0.0985
      3 N          60.7512   93.0584    0.2367 N.ar    1  UNL1       -0.2423
      4 C          59.3761   93.5134   -0.1533 C.ar    1  UNL1        0.0985
      5 C          59.1284   94.0584   -1.5286 C.ar    1  UNL1        0.0152
      6 C          60.2559   94.1484   -2.5140 C.ar    1  UNL1       -0.0188
      7 C          60.0082   94.6934   -3.8893 C.3     1  UNL1        0.0311
      8 C          64.1216   92.7571   -5.0684 C.ar    1  UNL1        0.1690
      9 C          62.9943   92.6672   -4.0831 C.ar    1  UNL1        0.0395
     10 C          62.7584   93.7834   -3.1093 C.ar    1  UNL1        0.0074
     11 C          63.6498   94.9897   -3.1208 C.ar    1  UNL1        0.0395
     12 C          64.7772   95.0797   -4.1061 C.ar    1  UNL1        0.1690
     13 C          65.0131   93.9634   -5.0799 C.ar    1  UNL1        0.2074
     14 F          66.1406   94.0534   -6.0653 F       1  UNL1       -0.1977
     15 C          65.6346   91.5877   -6.8271 C.3     1  UNL1        0.2526
     16 O          64.3575   91.6409   -6.0422 O.3     1  UNL1       -0.4691
     17 O          65.6687   96.2860   -4.1177 O.3     1  UNL1       -0.4691
     18 C          66.1762   96.8559   -2.8264 C.3     1  UNL1        0.2526
     19 C          57.7533   94.5134   -1.9187 C.ar    1  UNL1        0.0013
     20 C          56.7817   93.5384   -2.5147 C.ar    1  UNL1        0.0013
     21 C          55.4066   93.9933   -2.9047 C.ar    1  UNL1        0.0145
     22 C          55.0032   95.4233   -2.6988 C.ar    1  UNL1        0.0479
     23 C          55.9749   96.3983   -2.1027 C.ar    1  UNL1        0.0145
     24 C          57.3499   95.9434   -1.7127 C.ar    1  UNL1        0.0013
     25 N          53.6281   95.8783   -3.0888 N.pl3   1  UNL1       -0.3047
     26 C          52.5604   96.0191   -2.0447 C.3     1  UNL1        0.1079
     27 C          51.1853   96.4741   -2.4347 C.3     1  UNL1        0.0903
     28 N          50.8779   96.7883   -3.8688 N.3     1  UNL1       -0.2946
     29 C          51.9457   96.6475   -4.9130 C.3     1  UNL1        0.0903
     30 C          53.3207   96.1925   -4.5230 C.3     1  UNL1        0.1079
     31 H          50.5646   97.7586   -3.8971 H       1  UNL1        0.1233
@<TRIPOS>BOND
     1    15    16    1
     2    16     8    1
     3     8     9   ar
     4     9    10   ar
     5    10     1    1
     6     1     2   ar
     7     2     3   ar
     8     3     4   ar
     9     4     5   ar
    10     5    19    1
    11    19    20   ar
    12    20    21   ar
    13    21    22   ar
    14    22    25    1
    15    25    26    1
    16    26    27    1
    17    27    28    1
    18    28    29    1
    19    29    30    1
    20    22    23   ar
    21    23    24   ar
    22     5     6   ar
    23     6     7    1
    24    10    11   ar
    25    11    12   ar
    26    12    17    1
    27    17    18    1
    28    12    13   ar
    29    13    14    1
    30    13     8   ar
    31     6     1   ar
    32    24    19   ar
    33    30    25    1
    34    28    31    1
@<TRIPOS>MOLECULE
*****
 31 34 0 0 0
SMALL
GASTEIGER

@<TRIPOS>ATOM
      1 C          61.9418   93.6445   -2.5575 C.ar    1  UNL1        0.0154
      2 C          62.2567   93.1192   -1.1883 C.ar    1  UNL1        0.0985
      3 N          61.1781   93.0402   -0.1489 N.ar    1  UNL1       -0.2423
      4 C          59.7845   93.4866   -0.4787 C.ar    1  UNL1        0.0985
      5 C          59.4696   94.0120   -1.8480 C.ar    1  UNL1        0.0152
      6 C          60.5483   94.0909   -2.8874 C.ar    1  UNL1       -0.0188
      7 C          60.2334   94.6162   -4.2566 C.3     1  UNL1        0.0311
      8 C          65.0178   94.9875   -4.6753 C.ar    1  UNL1        0.1690
      9 C          63.9391   94.9086   -3.6359 C.ar    1  UNL1        0.0395
     10 C          63.0205   93.7234   -3.5969 C.ar    1  UNL1        0.0074
     11 C          63.1804   92.6173   -4.5973 C.ar    1  UNL1        0.0395
     12 C          64.2591   92.6962   -5.6366 C.ar    1  UNL1        0.1690
     13 C          65.1777   93.8814   -5.6756 C.ar    1  UNL1        0.2074
     14 F          66.2564   93.9603   -6.7150 F       1  UNL1       -0.1977
     15 C          66.2241   96.8560   -6.0182 C.3     1  UNL1        0.2526
     16 O          65.9364   96.1727   -4.7143 O.3     1  UNL1       -0.4691
     17 O          64.4191   91.5900   -6.6370 O.3     1  UNL1       -0.4691
     18 C          65.7906   91.1479   -7.0534 C.3     1  UNL1        0.2526
     19 C          58.0761   94.4584   -2.1778 C.ar    1  UNL1        0.0013
     20 C          57.0591   93.4592   -2.6438 C.ar    1  UNL1        0.0013
     21 C          55.6655   93.9056   -2.9737 C.ar    1  UNL1        0.0145
     22 C          55.2891   95.3512   -2.8376 C.ar    1  UNL1        0.0479
     23 C          56.3062   96.3504   -2.3716 C.ar    1  UNL1        0.0145
     24 C          57.6997   95.9040   -2.0418 C.ar    1  UNL1        0.0013
     25 N          53.8956   95.7976   -3.1675 N.pl3   1  UNL1       -0.3047
     26 C          53.5113   96.0649   -4.5925 C.3     1  UNL1        0.1079
     27 C          52.1177   96.5114   -4.9224 C.3     1  UNL1        0.0903
     28 N          51.1085   96.6904   -3.8273 N.3     1  UNL1       -0.2946
     29 C          51.4928   96.4230   -2.4021 C.3     1  UNL1        0.0903
     30 C          52.8863   95.9766   -2.0723 C.3     1  UNL1        0.1079
     31 H          50.3272   96.0711   -4.0427 H       1  UNL1        0.1233
@<TRIPOS>BOND
     1    15    16    1
     2    16     8    1
     3     8     9   ar
     4     9    10   ar
     5    10     1    1
     6     1     2   ar
     7     2     3   ar
     8     3     4   ar
     9     4     5   ar
    10     5    19    1
    11    19    20   ar
    12    20    21   ar
    13    21    22   ar
    14    22    25    1
    15    25    26    1
    16    26    27    1
    17    27    28    1
    18    28    29    1
    19    29    30    1
    20    22    23   ar
    21    23    24   ar
    22     5     6   ar
    23     6     7    1
    24    10    11   ar
    25    11    12   ar
    26    12    17    1
    27    17    18    1
    28    12    13   ar
    29    13    14    1
    30    13     8   ar
    31     6     1   ar
    32    24    19   ar
    33    30    25    1
    34    28    31    1
@<TRIPOS>MOLECULE
*****
 31 34 0 0 0
SMALL
GASTEIGER

@<TRIPOS>ATOM
      1 C          63.1766   85.8274   14.8655 C.ar    1  UNL1        0.0154
      2 C          62.9049   85.8708   16.3401 C.ar    1  UNL1        0.0985
      3 N          63.0913   87.1507   17.0997 N.ar    1  UNL1       -0.2423
      4 C          63.5496   88.3873   16.3848 C.ar    1  UNL1        0.0985
      5 C          63.8214   88.3438   14.9103 C.ar    1  UNL1        0.0152
      6 C          63.6349   87.0639   14.1506 C.ar    1  UNL1       -0.0188
      7 C          63.9067   87.0204   12.6761 C.3     1  UNL1        0.0311
      8 C          62.4997   81.9962   14.0822 C.ar    1  UNL1        0.1690
      9 C          62.6862   83.2761   14.8417 C.ar    1  UNL1        0.0395
     10 C          62.9902   84.5474   14.1059 C.ar    1  UNL1        0.0074
     11 C          63.1076   84.5388   12.6106 C.ar    1  UNL1        0.0395
     12 C          62.9211   83.2589   11.8510 C.ar    1  UNL1        0.1690
     13 C          62.6172   81.9876   12.5868 C.ar    1  UNL1        0.2074
     14 F          62.4307   80.7076   11.8272 F       1  UNL1       -0.1977
     15 C          61.9265   79.4623   14.0542 C.3     1  UNL1        0.2526
     16 O          62.1958   80.7249   14.8180 O.3     1  UNL1       -0.4691
     17 O          63.0385   83.2502   10.3556 O.3     1  UNL1       -0.4691
     18 C          64.3911   83.3018    9.7092 C.3     1  UNL1        0.2526
     19 C          64.2796   89.5803   14.1954 C.ar    1  UNL1        0.0013
     20 C          63.5634   90.0417   12.9609 C.ar    1  UNL1        0.0013
     21 C          64.0216   91.2783   12.2459 C.ar    1  UNL1        0.0145
     22 C          65.1961   92.0533   12.7655 C.ar    1  UNL1        0.0479
     23 C          65.9123   91.5918   14.0001 C.ar    1  UNL1        0.0145
     24 C          65.4541   90.3553   14.7150 C.ar    1  UNL1        0.0013
     25 N          65.6543   93.2897   12.0506 N.pl3   1  UNL1       -0.3047
     26 C          65.6572   93.3315   10.5512 C.3     1  UNL1        0.1079
     27 C          66.1154   94.5680    9.8362 C.3     1  UNL1        0.0903
     28 N          66.5708   95.7627   10.6207 N.3     1  UNL1       -0.2946
     29 C          66.5679   95.7209   12.1202 C.3     1  UNL1        0.0903
     30 C          66.1097   94.4844   12.8351 C.3     1  UNL1        0.1079
     31 H          65.9711   96.5409   10.3467 H       1  UNL1        0.1233
@<TRIPOS>BOND
     1    15    16    1
     2    16     8    1
     3     8     9   ar
     4     9    10   ar
     5    10     1    1
     6     1     2   ar
     7     2     3   ar
     8     3     4   ar
     9     4     5   ar
    10     5    19    1
    11    19    20   ar
    12    20    21   ar
    13    21    22   ar
    14    22    25    1
    15    25    26    1
    16    26    27    1
    17    27    28    1
    18    28    29    1
    19    29    30    1
    20    22    23   ar
    21    23    24   ar
    22     5     6   ar
    23     6     7    1
    24    10    11   ar
    25    11    12   ar
    26    12    17    1
    27    17    18    1
    28    12    13   ar
    29    13    14    1
    30    13     8   ar
    31     6     1   ar
    32    24    19   ar
    33    30    25    1
    34    28    31    1
