@<TRIPOS>MOLECULE
*****
 28 32 0 0 0
SMALL
GASTEIGER

@<TRIPOS>ATOM
      1 C          59.5925   89.3297    6.9155 C.ar    1  UNL1        0.0653
      2 C          59.1554   87.9036    6.7569 C.ar    1  UNL1        0.0188
      3 C          59.6180   86.8643    7.7346 C.ar    1  UNL1        0.0158
      4 C          60.5177   87.2512    8.8708 C.ar    1  UNL1        0.0454
      5 C          60.9547   88.6773    9.0293 C.ar    1  UNL1       -0.0069
      6 C          60.4922   89.7165    8.0517 C.ar    1  UNL1        0.0145
      7 C          61.8421   89.2719   10.0823 C.3     1  UNL1        0.0330
      8 C          62.5117   88.5873   11.2369 C.3     1  UNL1        0.0406
      9 C          62.4591   87.1390   11.6236 C.ar    1  UNL1        0.0403
     10 S          63.1798   86.5742   12.8118 S.2     1  UNL1       -0.0735
     11 C          62.8902   85.1037   12.8737 C.ar    1  UNL1        0.0938
     12 N          61.9906   84.7597   11.7239 N.ar    1  UNL1       -0.2279
     13 C          61.7241   86.0175   10.9513 C.ar    1  UNL1        0.1343
     14 N          60.8601   86.0675    9.7261 N.pl3   1  UNL1       -0.2980
     15 H          60.4655   85.2100    9.4464 H       1  UNL1        0.1536
     16 C          59.5872   93.0545    3.1728 C.3     1  UNL1        0.0538
     17 C          59.1275   92.0811    4.2175 C.ar    1  UNL1        0.0786
     18 C          60.0058   91.1623    5.0139 C.ar    1  UNL1        0.0962
     19 N          59.1299   90.3691    5.9378 N.ar    1  UNL1       -0.2868
     20 C          57.7102   90.7976    5.7123 C.ar    1  UNL1        0.1825
     21 N          57.7087   91.8557    4.6491 N.ar    1  UNL1       -0.2280
     22 C          63.4092   84.1456   13.9045 C.3     1  UNL1        0.0788
     23 C          62.9828   82.7078   13.8742 C.ar    1  UNL1       -0.0157
     24 C          63.9464   81.6491   13.4262 C.ar    1  UNL1       -0.0039
     25 C          63.5200   80.2113   13.3959 C.ar    1  UNL1       -0.0003
     26 C          62.1301   79.8322   13.8134 C.ar    1  UNL1       -0.0000
     27 C          61.1665   80.8909   14.2613 C.ar    1  UNL1       -0.0003
     28 C          61.5929   82.3288   14.2917 C.ar    1  UNL1       -0.0039
@<TRIPOS>BOND
     1    16    17    1
     2    17    18   ar
     3    18    19   ar
     4    19     1    1
     5     1     2   ar
     6     2     3   ar
     7     3     4   ar
     8     4     5   ar
     9     5     6   ar
    10     5     7    1
    11     7     8    1
    12     8     9    1
    13     9    10   ar
    14    10    11   ar
    15    11    22    1
    16    22    23    1
    17    23    24   ar
    18    24    25   ar
    19    25    26   ar
    20    26    27   ar
    21    27    28   ar
    22    11    12   ar
    23    12    13   ar
    24    13    14    1
    25    19    20   ar
    26    20    21   ar
    27    21    17   ar
    28     6     1   ar
    29    13     9   ar
    30    14     4    1
    31    28    23   ar
    32    14    15    1
@<TRIPOS>MOLECULE
*****
 28 32 0 0 0
SMALL
GASTEIGER

@<TRIPOS>ATOM
      1 C          62.9214   83.7438   13.9006 C.ar    1  UNL1        0.0653
      2 C          63.8547   84.1479   15.0030 C.ar    1  UNL1        0.0188
      3 C          64.3650   85.5566   15.0750 C.ar    1  UNL1        0.0158
      4 C          63.9418   86.5612   14.0446 C.ar    1  UNL1        0.0454
      5 C          63.0084   86.1570   12.9421 C.ar    1  UNL1       -0.0069
      6 C          62.4982   84.7483   12.8701 C.ar    1  UNL1        0.0145
      7 C          62.4658   86.9943   11.8221 C.3     1  UNL1        0.0330
      8 C          62.7225   88.4426   11.5280 C.3     1  UNL1        0.0406
      9 C          63.5853   89.4113   12.2812 C.ar    1  UNL1        0.0403
     10 S          63.7604   90.8463   11.8809 S.2     1  UNL1       -0.0735
     11 C          64.6878   91.4927   12.8668 C.ar    1  UNL1        0.0938
     12 N          65.0858   90.4573   13.8765 N.ar    1  UNL1       -0.2279
     13 C          64.4044   89.1710   13.5145 C.ar    1  UNL1        0.1343
     14 N          64.5631   87.9025   14.2993 N.pl3   1  UNL1       -0.2980
     15 H          65.1530   87.9576   15.0856 H       1  UNL1        0.1536
     16 C          59.7892   79.5110   14.2932 C.3     1  UNL1        0.0538
     17 C          60.9714   80.3894   14.0090 C.ar    1  UNL1        0.0786
     18 C          61.0523   81.8665   14.2575 C.ar    1  UNL1        0.0962
     19 N          62.4111   82.3350   13.8285 N.ar    1  UNL1       -0.2868
     20 C          63.1701   81.1476   13.3149 C.ar    1  UNL1        0.1825
     21 N          62.2803   79.9451   13.4264 N.ar    1  UNL1       -0.2280
     22 C          65.1380   92.9234   12.8466 C.3     1  UNL1        0.0788
     23 C          65.9877   93.4263   11.7173 C.ar    1  UNL1       -0.0157
     24 C          65.9969   94.8876   11.3790 C.ar    1  UNL1       -0.0039
     25 C          66.8465   95.3906   10.2498 C.ar    1  UNL1       -0.0003
     26 C          67.6868   94.4324    9.4588 C.ar    1  UNL1       -0.0000
     27 C          67.6776   92.9711    9.7972 C.ar    1  UNL1       -0.0003
     28 C          66.8280   92.4680   10.9265 C.ar    1  UNL1       -0.0039
@<TRIPOS>BOND
     1    16    17    1
     2    17    18   ar
     3    18    19   ar
     4    19     1    1
     5     1     2   ar
     6     2     3   ar
     7     3     4   ar
     8     4     5   ar
     9     5     6   ar
    10     5     7    1
    11     7     8    1
    12     8     9    1
    13     9    10   ar
    14    10    11   ar
    15    11    22    1
    16    22    23    1
    17    23    24   ar
    18    24    25   ar
    19    25    26   ar
    20    26    27   ar
    21    27    28   ar
    22    11    12   ar
    23    12    13   ar
    24    13    14    1
    25    19    20   ar
    26    20    21   ar
    27    21    17   ar
    28     6     1   ar
    29    13     9   ar
    30    14     4    1
    31    28    23   ar
    32    14    15    1
@<TRIPOS>MOLECULE
*****
 28 32 0 0 0
SMALL
GASTEIGER

@<TRIPOS>ATOM
      1 C          63.1988   82.5340   13.0181 C.ar    1  UNL1        0.0653
      2 C          63.9636   82.7491   14.2904 C.ar    1  UNL1        0.0188
      3 C          64.3158   84.1400   14.7277 C.ar    1  UNL1        0.0158
      4 C          63.9033   85.3158   13.8927 C.ar    1  UNL1        0.0454
      5 C          63.1385   85.1007   12.6204 C.ar    1  UNL1       -0.0069
      6 C          62.7863   83.7098   12.1831 C.ar    1  UNL1        0.0145
      7 C          62.6344   86.1252   11.6476 C.3     1  UNL1        0.0330
      8 C          62.7707   87.6178   11.7069 C.3     1  UNL1        0.0406
      9 C          63.4446   88.4546   12.7537 C.ar    1  UNL1        0.0403
     10 S          63.5128   89.9520   12.6969 S.2     1  UNL1       -0.0735
     11 C          64.2591   90.4282   13.9078 C.ar    1  UNL1        0.0938
     12 N          64.6521   89.2252   14.7129 N.ar    1  UNL1       -0.2279
     13 C          64.1488   88.0055   13.9996 C.ar    1  UNL1        0.1343
     14 N          64.3529   86.6085   14.5065 N.pl3   1  UNL1       -0.2980
     15 H          64.8474   86.5297   15.3542 H       1  UNL1        0.1536
     16 C          62.6656   78.1755   10.0854 C.3     1  UNL1        0.0538
     17 C          62.6015   79.1397   11.2327 C.ar    1  UNL1        0.0786
     18 C          63.1200   80.5472   11.2316 C.ar    1  UNL1        0.0962
     19 N          62.8466   81.1430   12.5808 N.ar    1  UNL1       -0.2868
     20 C          62.1591   80.1037   13.4158 C.ar    1  UNL1        0.1825
     21 N          62.0076   78.8656   12.5827 N.ar    1  UNL1       -0.2280
     22 C          64.5595   91.8567   14.2530 C.3     1  UNL1        0.0788
     23 C          65.9571   92.2624   14.6167 C.ar    1  UNL1       -0.0157
     24 C          66.2609   92.7447   16.0041 C.ar    1  UNL1       -0.0039
     25 C          67.6584   93.1505   16.3679 C.ar    1  UNL1       -0.0003
     26 C          68.7521   93.0740   15.3442 C.ar    1  UNL1       -0.0000
     27 C          68.4482   92.5917   13.9567 C.ar    1  UNL1       -0.0003
     28 C          67.0507   92.1859   13.5929 C.ar    1  UNL1       -0.0039
@<TRIPOS>BOND
     1    16    17    1
     2    17    18   ar
     3    18    19   ar
     4    19     1    1
     5     1     2   ar
     6     2     3   ar
     7     3     4   ar
     8     4     5   ar
     9     5     6   ar
    10     5     7    1
    11     7     8    1
    12     8     9    1
    13     9    10   ar
    14    10    11   ar
    15    11    22    1
    16    22    23    1
    17    23    24   ar
    18    24    25   ar
    19    25    26   ar
    20    26    27   ar
    21    27    28   ar
    22    11    12   ar
    23    12    13   ar
    24    13    14    1
    25    19    20   ar
    26    20    21   ar
    27    21    17   ar
    28     6     1   ar
    29    13     9   ar
    30    14     4    1
    31    28    23   ar
    32    14    15    1
@<TRIPOS>MOLECULE
*****
 28 32 0 0 0
SMALL
GASTEIGER

@<TRIPOS>ATOM
      1 C          72.6521   80.2345   10.7987 C.ar    1  UNL1        0.0653
      2 C          73.3906   80.7870   11.9816 C.ar    1  UNL1        0.0188
      3 C          73.6197   79.9288   13.1903 C.ar    1  UNL1        0.0158
      4 C          73.1103   78.5182   13.2161 C.ar    1  UNL1        0.0454
      5 C          72.3719   77.9657   12.0332 C.ar    1  UNL1       -0.0069
      6 C          72.1428   78.8238   10.8244 C.ar    1  UNL1        0.0145
      7 C          71.7850   76.5971   11.8528 C.3     1  UNL1        0.0330
      8 C          71.7916   75.4430   12.8109 C.3     1  UNL1        0.0406
      9 C          72.3868   75.3725   14.1860 C.ar    1  UNL1        0.0403
     10 S          72.3256   74.1486   15.0511 S.2     1  UNL1       -0.0735
     11 C          73.0233   74.4583   16.3424 C.ar    1  UNL1        0.0938
     12 N          73.5156   75.8736   16.2753 N.ar    1  UNL1       -0.2279
     13 C          73.1223   76.4385   14.9426 C.ar    1  UNL1        0.1343
     14 N          73.4443   77.8386   14.5109 N.pl3   1  UNL1       -0.2980
     15 H          73.9404   78.3834   15.1638 H       1  UNL1        0.1536
     16 C          71.7592   81.7696    5.8260 C.3     1  UNL1        0.0538
     17 C          72.0125   81.7982    7.3042 C.ar    1  UNL1        0.0786
     18 C          72.1947   80.6021    8.1908 C.ar    1  UNL1        0.0962
     19 N          72.4230   81.0926    9.5899 N.ar    1  UNL1       -0.2868
     20 C          72.3819   82.5919    9.5679 C.ar    1  UNL1        0.1825
     21 N          72.1282   83.0280    8.1553 N.ar    1  UNL1       -0.2280
     22 C          73.1979   73.5179   17.4978 C.3     1  UNL1        0.0788
     23 C          72.6011   72.1428   17.4424 C.ar    1  UNL1       -0.0157
     24 C          73.3762   71.0129   16.8319 C.ar    1  UNL1       -0.0039
     25 C          72.7795   69.6379   16.7764 C.ar    1  UNL1       -0.0003
     26 C          71.4077   69.3926   17.3315 C.ar    1  UNL1       -0.0000
     27 C          70.6327   70.5224   17.9420 C.ar    1  UNL1       -0.0003
     28 C          71.2294   71.8976   17.9974 C.ar    1  UNL1       -0.0039
@<TRIPOS>BOND
     1    16    17    1
     2    17    18   ar
     3    18    19   ar
     4    19     1    1
     5     1     2   ar
     6     2     3   ar
     7     3     4   ar
     8     4     5   ar
     9     5     6   ar
    10     5     7    1
    11     7     8    1
    12     8     9    1
    13     9    10   ar
    14    10    11   ar
    15    11    22    1
    16    22    23    1
    17    23    24   ar
    18    24    25   ar
    19    25    26   ar
    20    26    27   ar
    21    27    28   ar
    22    11    12   ar
    23    12    13   ar
    24    13    14    1
    25    19    20   ar
    26    20    21   ar
    27    21    17   ar
    28     6     1   ar
    29    13     9   ar
    30    14     4    1
    31    28    23   ar
    32    14    15    1
@<TRIPOS>MOLECULE
*****
 28 32 0 0 0
SMALL
GASTEIGER

@<TRIPOS>ATOM
      1 C          59.5882   90.0457    6.2168 C.ar    1  UNL1        0.0653
      2 C          58.3335   90.7622    5.8140 C.ar    1  UNL1        0.0188
      3 C          58.3602   91.7396    4.6765 C.ar    1  UNL1        0.0158
      4 C          59.6417   92.0005    3.9418 C.ar    1  UNL1        0.0454
      5 C          60.8964   91.2840    4.3446 C.ar    1  UNL1       -0.0069
      6 C          60.8697   90.3066    5.4820 C.ar    1  UNL1        0.0145
      7 C          62.2692   91.3962    3.7506 C.3     1  UNL1        0.0330
      8 C          62.7263   92.2527    2.6071 C.3     1  UNL1        0.0406
      9 C          61.9235   93.2085    1.7752 C.ar    1  UNL1        0.0403
     10 S          62.5035   94.0131    0.6500 S.2     1  UNL1       -0.0735
     11 C          61.4038   94.8458    0.0607 C.ar    1  UNL1        0.0938
     12 N          60.1442   94.5558    0.8217 N.ar    1  UNL1       -0.2279
     13 C          60.4654   93.5439    1.8813 C.ar    1  UNL1        0.1343
     14 N          59.4499   93.0062    2.8456 N.pl3   1  UNL1       -0.2980
     15 H          58.5367   93.3603    2.7457 H       1  UNL1        0.1536
     16 C          60.2721   87.8542   10.9719 C.3     1  UNL1        0.0538
     17 C          59.8759   88.0610    9.5400 C.ar    1  UNL1        0.0786
     18 C          60.1209   89.2975    8.7271 C.ar    1  UNL1        0.0962
     19 N          59.5615   89.0682    7.3543 N.ar    1  UNL1       -0.2868
     20 C          58.9708   87.6899    7.3188 C.ar    1  UNL1        0.1825
     21 N          59.1651   87.0674    8.6696 N.ar    1  UNL1       -0.2280
     22 C          61.5399   95.8008   -1.0879 C.3     1  UNL1        0.0788
     23 C          62.5367   95.5288   -2.1754 C.ar    1  UNL1       -0.0157
     24 C          63.8344   96.2804   -2.2085 C.ar    1  UNL1       -0.0039
     25 C          64.8311   96.0084   -3.2959 C.ar    1  UNL1       -0.0003
     26 C          64.5302   94.9848   -4.3503 C.ar    1  UNL1       -0.0000
     27 C          63.2325   94.2333   -4.3172 C.ar    1  UNL1       -0.0003
     28 C          62.2357   94.5053   -3.2298 C.ar    1  UNL1       -0.0039
@<TRIPOS>BOND
     1    16    17    1
     2    17    18   ar
     3    18    19   ar
     4    19     1    1
     5     1     2   ar
     6     2     3   ar
     7     3     4   ar
     8     4     5   ar
     9     5     6   ar
    10     5     7    1
    11     7     8    1
    12     8     9    1
    13     9    10   ar
    14    10    11   ar
    15    11    22    1
    16    22    23    1
    17    23    24   ar
    18    24    25   ar
    19    25    26   ar
    20    26    27   ar
    21    27    28   ar
    22    11    12   ar
    23    12    13   ar
    24    13    14    1
    25    19    20   ar
    26    20    21   ar
    27    21    17   ar
    28     6     1   ar
    29    13     9   ar
    30    14     4    1
    31    28    23   ar
    32    14    15    1
@<TRIPOS>MOLECULE
*****
 28 32 0 0 0
SMALL
GASTEIGER

@<TRIPOS>ATOM
      1 C          71.5432   73.2120   14.8633 C.ar    1  UNL1        0.0653
      2 C          71.5357   72.8861   13.3992 C.ar    1  UNL1        0.0188
      3 C          71.7091   73.9791   12.3867 C.ar    1  UNL1        0.0158
      4 C          71.8902   75.3980   12.8382 C.ar    1  UNL1        0.0454
      5 C          71.8977   75.7239   14.3024 C.ar    1  UNL1       -0.0069
      6 C          71.7242   74.6309   15.3149 C.ar    1  UNL1        0.0145
      7 C          72.0624   77.0609   14.9620 C.3     1  UNL1        0.0330
      8 C          72.2603   78.4023   14.3205 C.3     1  UNL1        0.0406
      9 C          72.3423   78.7379   12.8608 C.ar    1  UNL1        0.0403
     10 S          72.5442   80.1313   12.3433 S.2     1  UNL1       -0.0735
     11 C          72.5733   80.0695   10.8448 C.ar    1  UNL1        0.0938
     12 N          72.3895   78.6381   10.4363 N.ar    1  UNL1       -0.2279
     13 C          72.2467   77.8151   11.6822 C.ar    1  UNL1        0.1343
     14 N          72.0455   76.3286   11.6722 N.pl3   1  UNL1       -0.2980
     15 H          72.0108   75.9083   10.7826 H       1  UNL1        0.1536
     16 C          71.6407   68.4878   17.2198 C.3     1  UNL1        0.0538
     17 C          71.4145   69.9475   16.9590 C.ar    1  UNL1        0.0786
     18 C          71.7722   70.6844   15.7025 C.ar    1  UNL1        0.0962
     19 N          71.3697   72.1190   15.8759 N.ar    1  UNL1       -0.2868
     20 C          70.7633   72.2687   17.2396 C.ar    1  UNL1        0.1825
     21 N          70.7910   70.9266   17.9091 N.ar    1  UNL1       -0.2280
     22 C          72.7544   81.2348    9.9178 C.3     1  UNL1        0.0788
     23 C          72.3280   81.1257    8.4838 C.ar    1  UNL1       -0.0157
     24 C          72.0904   79.7767    7.8726 C.ar    1  UNL1       -0.0039
     25 C          71.6640   79.6676    6.4387 C.ar    1  UNL1       -0.0003
     26 C          71.4752   80.9074    5.6159 C.ar    1  UNL1       -0.0000
     27 C          71.7128   82.2565    6.2271 C.ar    1  UNL1       -0.0003
     28 C          72.1392   82.3656    7.6612 C.ar    1  UNL1       -0.0039
@<TRIPOS>BOND
     1    16    17    1
     2    17    18   ar
     3    18    19   ar
     4    19     1    1
     5     1     2   ar
     6     2     3   ar
     7     3     4   ar
     8     4     5   ar
     9     5     6   ar
    10     5     7    1
    11     7     8    1
    12     8     9    1
    13     9    10   ar
    14    10    11   ar
    15    11    22    1
    16    22    23    1
    17    23    24   ar
    18    24    25   ar
    19    25    26   ar
    20    26    27   ar
    21    27    28   ar
    22    11    12   ar
    23    12    13   ar
    24    13    14    1
    25    19    20   ar
    26    20    21   ar
    27    21    17   ar
    28     6     1   ar
    29    13     9   ar
    30    14     4    1
    31    28    23   ar
    32    14    15    1
@<TRIPOS>MOLECULE
*****
 28 32 0 0 0
SMALL
GASTEIGER

@<TRIPOS>ATOM
      1 C          59.5293   89.9786    6.2797 C.ar    1  UNL1        0.0653
      2 C          58.2322   90.6258    5.8942 C.ar    1  UNL1        0.0188
      3 C          58.1905   91.6026    4.7567 C.ar    1  UNL1        0.0158
      4 C          59.4458   91.9322    4.0046 C.ar    1  UNL1        0.0454
      5 C          60.7429   91.2850    4.3901 C.ar    1  UNL1       -0.0069
      6 C          60.7846   90.3081    5.5276 C.ar    1  UNL1        0.0145
      7 C          62.0993   91.4711    3.7775 C.3     1  UNL1        0.0330
      8 C          62.4938   92.3505    2.6281 C.3     1  UNL1        0.0406
      9 C          61.6291   93.2609    1.8074 C.ar    1  UNL1        0.0403
     10 S          62.1493   94.0952    0.6746 S.2     1  UNL1       -0.0735
     11 C          60.9981   94.8668    0.1005 C.ar    1  UNL1        0.0938
     12 N          59.7665   94.5093    0.8785 N.ar    1  UNL1       -0.2279
     13 C          60.1565   93.5168    1.9334 C.ar    1  UNL1        0.1343
     14 N          59.1848   92.9255    2.9113 N.pl3   1  UNL1       -0.2980
     15 H          58.2525   93.2294    2.8240 H       1  UNL1        0.1536
     16 C          60.3808   87.8351   11.0296 C.3     1  UNL1        0.0538
     17 C          59.9625   88.0165    9.6006 C.ar    1  UNL1        0.0786
     18 C          60.1248   89.2656    8.7861 C.ar    1  UNL1        0.0962
     19 N          59.5711   89.0017    7.4173 N.ar    1  UNL1       -0.2868
     20 C          59.0666   87.5894    7.3857 C.ar    1  UNL1        0.1825
     21 N          59.3085   86.9805    8.7350 N.ar    1  UNL1       -0.2280
     22 C          61.0666   95.8272   -1.0497 C.3     1  UNL1        0.0788
     23 C          60.2397   95.5866   -2.2779 C.ar    1  UNL1       -0.0157
     24 C          60.0329   94.1887   -2.7808 C.ar    1  UNL1       -0.0039
     25 C          59.2061   93.9481   -4.0089 C.ar    1  UNL1       -0.0003
     26 C          58.5860   95.1055   -4.7342 C.ar    1  UNL1       -0.0000
     27 C          58.7928   96.5034   -4.2313 C.ar    1  UNL1       -0.0003
     28 C          59.6197   96.7440   -3.0031 C.ar    1  UNL1       -0.0039
@<TRIPOS>BOND
     1    16    17    1
     2    17    18   ar
     3    18    19   ar
     4    19     1    1
     5     1     2   ar
     6     2     3   ar
     7     3     4   ar
     8     4     5   ar
     9     5     6   ar
    10     5     7    1
    11     7     8    1
    12     8     9    1
    13     9    10   ar
    14    10    11   ar
    15    11    22    1
    16    22    23    1
    17    23    24   ar
    18    24    25   ar
    19    25    26   ar
    20    26    27   ar
    21    27    28   ar
    22    11    12   ar
    23    12    13   ar
    24    13    14    1
    25    19    20   ar
    26    20    21   ar
    27    21    17   ar
    28     6     1   ar
    29    13     9   ar
    30    14     4    1
    31    28    23   ar
    32    14    15    1
@<TRIPOS>MOLECULE
*****
 28 32 0 0 0
SMALL
GASTEIGER

@<TRIPOS>ATOM
      1 C          62.7141   85.4985   12.2175 C.ar    1  UNL1        0.0653
      2 C          63.0902   86.9220   12.5039 C.ar    1  UNL1        0.0188
      3 C          62.6110   88.0204   11.6018 C.ar    1  UNL1        0.0158
      4 C          61.7556   87.6952   10.4133 C.ar    1  UNL1        0.0454
      5 C          61.3795   86.2717   10.1268 C.ar    1  UNL1       -0.0069
      6 C          61.8587   85.1733   11.0289 C.ar    1  UNL1        0.0145
      7 C          60.5426   85.7332    9.0046 C.3     1  UNL1        0.0330
      8 C          59.8750   86.4853    7.8915 C.3     1  UNL1        0.0406
      9 C          59.8796   87.9615    7.6259 C.ar    1  UNL1        0.0403
     10 S          59.1665   88.5951    6.4683 S.2     1  UNL1       -0.0735
     11 C          59.3990   90.0755    6.5346 C.ar    1  UNL1        0.0938
     12 N          60.2557   90.3569    7.7332 N.ar    1  UNL1       -0.2279
     13 C          60.5527   89.0504    8.4077 C.ar    1  UNL1        0.1343
     14 N          61.3877   88.9319    9.6482 N.pl3   1  UNL1       -0.2980
     15 H          61.7409   89.7775   10.0078 H       1  UNL1        0.1536
     16 C          63.7522   80.7098   14.1853 C.3     1  UNL1        0.0538
     17 C          63.6705   82.1988   14.0241 C.ar    1  UNL1        0.0786
     18 C          63.0539   82.9279   12.8673 C.ar    1  UNL1        0.0962
     19 N          63.1934   84.4000   13.1196 N.ar    1  UNL1       -0.2868
     20 C          63.8962   84.5807   14.4323 C.ar    1  UNL1        0.1825
     21 N          64.1911   83.2204   14.9913 N.ar    1  UNL1       -0.2280
     22 C          58.8679   91.0953    5.5714 C.3     1  UNL1        0.0788
     23 C          59.7596   91.6521    4.5013 C.ar    1  UNL1       -0.0157
     24 C          61.2074   91.2630    4.4540 C.ar    1  UNL1       -0.0039
     25 C          62.0991   91.8197    3.3841 C.ar    1  UNL1       -0.0003
     26 C          61.5430   92.7657    2.3614 C.ar    1  UNL1       -0.0000
     27 C          60.0952   93.1548    2.4087 C.ar    1  UNL1       -0.0003
     28 C          59.2034   92.5980    3.4787 C.ar    1  UNL1       -0.0039
@<TRIPOS>BOND
     1    16    17    1
     2    17    18   ar
     3    18    19   ar
     4    19     1    1
     5     1     2   ar
     6     2     3   ar
     7     3     4   ar
     8     4     5   ar
     9     5     6   ar
    10     5     7    1
    11     7     8    1
    12     8     9    1
    13     9    10   ar
    14    10    11   ar
    15    11    22    1
    16    22    23    1
    17    23    24   ar
    18    24    25   ar
    19    25    26   ar
    20    26    27   ar
    21    27    28   ar
    22    11    12   ar
    23    12    13   ar
    24    13    14    1
    25    19    20   ar
    26    20    21   ar
    27    21    17   ar
    28     6     1   ar
    29    13     9   ar
    30    14     4    1
    31    28    23   ar
    32    14    15    1
@<TRIPOS>MOLECULE
*****
 28 32 0 0 0
SMALL
GASTEIGER

@<TRIPOS>ATOM
      1 C          63.0374   82.4317   12.7809 C.ar    1  UNL1        0.0653
      2 C          63.8174   82.8851   13.9792 C.ar    1  UNL1        0.0188
      3 C          64.0750   84.3466   14.1973 C.ar    1  UNL1        0.0158
      4 C          63.5527   85.3547   13.2170 C.ar    1  UNL1        0.0454
      5 C          62.7728   84.9013   12.0187 C.ar    1  UNL1       -0.0069
      6 C          62.5151   83.4398   11.8006 C.ar    1  UNL1        0.0145
      7 C          62.1670   85.7333   10.9275 C.3     1  UNL1        0.0330
      8 C          62.1916   87.2243   10.7651 C.3     1  UNL1        0.0406
      9 C          62.8280   88.2515   11.6539 C.ar    1  UNL1        0.0403
     10 S          62.7813   89.7253   11.3787 S.2     1  UNL1       -0.0735
     11 C          63.5215   90.4260   12.4792 C.ar    1  UNL1        0.0938
     12 N          64.0256   89.3853   13.4345 N.ar    1  UNL1       -0.2279
     13 C          63.5970   88.0414   12.9245 C.ar    1  UNL1        0.1343
     14 N          63.9196   86.7521   13.6201 N.pl3   1  UNL1       -0.2980
     15 H          64.4410   86.8340   14.4512 H       1  UNL1        0.1536
     16 C          62.6523   77.6863   10.4974 C.3     1  UNL1        0.0538
     17 C          62.6028   78.7889   11.5131 C.ar    1  UNL1        0.0786
     18 C          62.9835   80.2208   11.2794 C.ar    1  UNL1        0.0962
     19 N          62.7798   80.9701   12.5628 N.ar    1  UNL1       -0.2868
     20 C          62.2732   80.0013   13.5898 C.ar    1  UNL1        0.1825
     21 N          62.1638   78.6532   12.9411 N.ar    1  UNL1       -0.2280
     22 C          63.7222   91.9074   12.6026 C.3     1  UNL1        0.0788
     23 C          64.9457   92.5496   12.0189 C.ar    1  UNL1       -0.0157
     24 C          64.8808   93.1959   10.6668 C.ar    1  UNL1       -0.0039
     25 C          66.1042   93.8381   10.0831 C.ar    1  UNL1       -0.0003
     26 C          67.3925   93.8342   10.8515 C.ar    1  UNL1       -0.0000
     27 C          67.4573   93.1880   12.2036 C.ar    1  UNL1       -0.0003
     28 C          66.2338   92.5457   12.7873 C.ar    1  UNL1       -0.0039
@<TRIPOS>BOND
     1    16    17    1
     2    17    18   ar
     3    18    19   ar
     4    19     1    1
     5     1     2   ar
     6     2     3   ar
     7     3     4   ar
     8     4     5   ar
     9     5     6   ar
    10     5     7    1
    11     7     8    1
    12     8     9    1
    13     9    10   ar
    14    10    11   ar
    15    11    22    1
    16    22    23    1
    17    23    24   ar
    18    24    25   ar
    19    25    26   ar
    20    26    27   ar
    21    27    28   ar
    22    11    12   ar
    23    12    13   ar
    24    13    14    1
    25    19    20   ar
    26    20    21   ar
    27    21    17   ar
    28     6     1   ar
    29    13     9   ar
    30    14     4    1
    31    28    23   ar
    32    14    15    1
