@<TRIPOS>MOLECULE
*****
 34 37 0 0 0
SMALL
GASTEIGER

@<TRIPOS>ATOM
      1 N          62.1074   86.5326   11.2499 N.pl3   1  UNL1       -0.2872
      2 C          62.8217   82.4771   13.0646 C.ar    1  UNL1        0.0715
      3 C          63.0239   82.6865   11.5931 C.ar    1  UNL1        0.0051
      4 C          62.7858   84.0383   10.9882 C.ar    1  UNL1        0.0148
      5 C          62.3455   85.1808   11.8548 C.ar    1  UNL1        0.0515
      6 C          62.1433   84.9714   13.3262 C.ar    1  UNL1        0.0148
      7 C          62.3814   83.6195   13.9311 C.ar    1  UNL1        0.0051
      8 F          63.2978   79.7735   14.2743 F       1  UNL1       -0.1659
      9 C          63.0598   81.1253   13.6695 C.3     1  UNL1        0.4186
     10 F          64.4370   81.1021   13.0756 F       1  UNL1       -0.1659
     11 F          61.6825   81.1485   14.2633 F       1  UNL1       -0.1659
     12 C          61.1892   86.6763   10.0726 C.ar    1  UNL1        0.0710
     13 C          61.4787   85.9356    8.8007 C.ar    1  UNL1        0.0180
     14 C          60.5604   86.0793    7.6234 C.ar    1  UNL1        0.0220
     15 C          59.3526   86.9637    7.7179 C.ar    1  UNL1        0.0990
     16 N          59.0630   87.7043    8.9897 N.ar    1  UNL1       -0.2410
     17 C          59.9812   87.5607   10.1670 C.ar    1  UNL1        0.1136
     18 C          62.7876   87.7407   11.8223 C.3     1  UNL1        0.0800
     19 C          62.6644   89.0676   11.1335 C.3     1  UNL1        0.0375
     20 C          63.3446   90.2757   11.7060 C.3     1  UNL1        0.0743
     21 N          64.1480   90.1571   12.9671 N.3     1  UNL1       -0.2634
     22 C          64.2712   88.8303   13.6558 C.3     1  UNL1        0.0743
     23 C          63.5910   87.6221   13.0834 C.3     1  UNL1        0.0375
     24 C          64.8282   91.3653   13.5395 C.3     1  UNL1        0.1764
     25 C          65.3712   92.4237   12.6257 C.ar    1  UNL1        0.0005
     26 C          65.9572   93.6802   13.1982 C.ar    1  UNL1       -0.0027
     27 C          66.5003   94.7385   12.2844 C.ar    1  UNL1       -0.0003
     28 C          66.4573   94.5403   10.7981 C.ar    1  UNL1       -0.0000
     29 C          65.8713   93.2838   10.2257 C.ar    1  UNL1       -0.0003
     30 C          65.3283   92.2254   11.1396 C.ar    1  UNL1       -0.0027
     31 C          64.9653   91.5152   15.0257 C.3     1  UNL1        0.4144
     32 F          65.1024   91.6650   16.5119 F       1  UNL1       -0.1682
     33 F          66.4516   91.3531   14.9049 F       1  UNL1       -0.1682
     34 F          63.4790   91.6773   15.1465 F       1  UNL1       -0.1682
@<TRIPOS>BOND
     1     8     9    1
     2     9    10    1
     3     9    11    1
     4     9     2    1
     5     2     3   ar
     6     3     4   ar
     7     4     5   ar
     8     5     1    1
     9     1    12    1
    10    12    13   ar
    11    13    14   ar
    12    14    15   ar
    13    15    16   ar
    14    16    17   ar
    15     1    18    1
    16    18    19    1
    17    19    20    1
    18    20    21    1
    19    21    24    1
    20    24    25    1
    21    25    26   ar
    22    26    27   ar
    23    27    28   ar
    24    28    29   ar
    25    29    30   ar
    26    24    31    1
    27    31    32    1
    28    31    33    1
    29    31    34    1
    30    21    22    1
    31    22    23    1
    32     5     6   ar
    33     6     7   ar
    34     7     2   ar
    35    17    12   ar
    36    23    18    1
    37    30    25   ar
@<TRIPOS>MOLECULE
*****
 34 37 0 0 0
SMALL
GASTEIGER

@<TRIPOS>ATOM
      1 N          62.0304   89.0287   11.6304 N.pl3   1  UNL1       -0.2872
      2 C          63.0399   84.7471   10.6821 C.ar    1  UNL1        0.0715
      3 C          63.2083   85.2656   12.0795 C.ar    1  UNL1        0.0051
      4 C          62.8718   86.6928   12.3956 C.ar    1  UNL1        0.0148
      5 C          62.3669   87.6015   11.3143 C.ar    1  UNL1        0.0515
      6 C          62.1985   87.0830    9.9169 C.ar    1  UNL1        0.0148
      7 C          62.5350   85.6558    9.6008 C.ar    1  UNL1        0.0051
      8 F          63.7129   81.8928   10.0499 F       1  UNL1       -0.1659
      9 C          63.3764   83.3199   10.3660 C.3     1  UNL1        0.4186
     10 F          62.9981   82.9216   11.7618 F       1  UNL1       -0.1659
     11 F          63.7547   83.7183    8.9702 F       1  UNL1       -0.1659
     12 C          60.5972   89.4470   11.7748 C.ar    1  UNL1        0.0710
     13 C          59.6126   88.5329   12.4420 C.ar    1  UNL1        0.0180
     14 C          58.1794   88.9513   12.5864 C.ar    1  UNL1        0.0220
     15 C          57.7307   90.2838   12.0637 C.ar    1  UNL1        0.0990
     16 N          58.7153   91.1979   11.3966 N.ar    1  UNL1       -0.2410
     17 C          60.1485   90.7795   11.2522 C.ar    1  UNL1        0.1136
     18 C          63.1270   90.0375   11.8020 C.3     1  UNL1        0.0800
     19 C          63.5188   90.9219   10.6555 C.3     1  UNL1        0.0375
     20 C          64.6154   91.9307   10.8272 C.3     1  UNL1        0.0743
     21 N          65.3205   92.0552   12.1453 N.3     1  UNL1       -0.2634
     22 C          64.9288   91.1709   13.2918 C.3     1  UNL1        0.0743
     23 C          63.8321   90.1620   13.1202 C.3     1  UNL1        0.0375
     24 C          66.4172   93.0641   12.3169 C.3     1  UNL1        0.1764
     25 C          66.6935   94.0632   11.2328 C.ar    1  UNL1        0.0005
     26 C          67.4939   93.6619   10.0293 C.ar    1  UNL1       -0.0027
     27 C          67.7703   94.6610    8.9452 C.ar    1  UNL1       -0.0003
     28 C          67.2463   96.0615    9.0645 C.ar    1  UNL1       -0.0000
     29 C          66.4459   96.4628   10.2679 C.ar    1  UNL1       -0.0003
     30 C          66.1695   95.4636   11.3521 C.ar    1  UNL1       -0.0027
     31 C          67.2375   93.0739   13.5727 C.3     1  UNL1        0.4144
     32 F          68.0578   93.0836   14.8285 F       1  UNL1       -0.1682
     33 F          68.0924   91.9708   13.0228 F       1  UNL1       -0.1682
     34 F          66.3826   94.1770   14.1226 F       1  UNL1       -0.1682
@<TRIPOS>BOND
     1     8     9    1
     2     9    10    1
     3     9    11    1
     4     9     2    1
     5     2     3   ar
     6     3     4   ar
     7     4     5   ar
     8     5     1    1
     9     1    12    1
    10    12    13   ar
    11    13    14   ar
    12    14    15   ar
    13    15    16   ar
    14    16    17   ar
    15     1    18    1
    16    18    19    1
    17    19    20    1
    18    20    21    1
    19    21    24    1
    20    24    25    1
    21    25    26   ar
    22    26    27   ar
    23    27    28   ar
    24    28    29   ar
    25    29    30   ar
    26    24    31    1
    27    31    32    1
    28    31    33    1
    29    31    34    1
    30    21    22    1
    31    22    23    1
    32     5     6   ar
    33     6     7   ar
    34     7     2   ar
    35    17    12   ar
    36    23    18    1
    37    30    25   ar
@<TRIPOS>MOLECULE
*****
 34 37 0 0 0
SMALL
GASTEIGER

@<TRIPOS>ATOM
      1 N          62.8204   85.0734   12.0057 N.pl3   1  UNL1       -0.2872
      2 C          62.1650   84.8139    7.5613 C.ar    1  UNL1        0.0715
      3 C          63.3651   84.1622    8.1817 C.ar    1  UNL1        0.0051
      4 C          63.5836   84.2487    9.6632 C.ar    1  UNL1        0.0148
      5 C          62.6019   84.9869   10.5242 C.ar    1  UNL1        0.0515
      6 C          61.4018   85.6386    9.9038 C.ar    1  UNL1        0.0148
      7 C          61.1833   85.5521    8.4223 C.ar    1  UNL1        0.0051
      8 F          61.7281   84.6409    4.5983 F       1  UNL1       -0.1659
      9 C          61.9465   84.7274    6.0798 C.3     1  UNL1        0.4186
     10 F          63.4256   84.5921    5.8696 F       1  UNL1       -0.1659
     11 F          60.4675   84.8626    6.2900 F       1  UNL1       -0.1659
     12 C          62.6430   83.8550   12.8624 C.ar    1  UNL1        0.0710
     13 C          62.4941   82.5053   12.2251 C.ar    1  UNL1        0.0180
     14 C          62.3167   81.2868   13.0819 C.ar    1  UNL1        0.0220
     15 C          62.2883   81.4181   14.5758 C.ar    1  UNL1        0.0990
     16 N          62.4373   82.7678   15.2131 N.ar    1  UNL1       -0.2410
     17 C          62.6146   83.9862   14.3564 C.ar    1  UNL1        0.1136
     18 C          63.2162   86.3783   12.6305 C.3     1  UNL1        0.0800
     19 C          64.0044   86.3903   13.9067 C.3     1  UNL1        0.0375
     20 C          64.4003   87.6953   14.5315 C.3     1  UNL1        0.0743
     21 N          64.0078   88.9882   13.8802 N.3     1  UNL1       -0.2634
     22 C          63.2196   88.9763   12.6041 C.3     1  UNL1        0.0743
     23 C          62.8238   87.6713   11.9792 C.3     1  UNL1        0.0375
     24 C          64.4037   90.2932   14.5051 C.3     1  UNL1        0.1764
     25 C          65.3370   91.2184   13.7821 C.ar    1  UNL1        0.0005
     26 C          64.8279   92.0669   12.6547 C.ar    1  UNL1       -0.0027
     27 C          65.7613   92.9921   11.9316 C.ar    1  UNL1       -0.0003
     28 C          67.2038   93.0689   12.3360 C.ar    1  UNL1       -0.0000
     29 C          67.7128   92.2205   13.4633 C.ar    1  UNL1       -0.0003
     30 C          66.7794   91.2952   14.1864 C.ar    1  UNL1       -0.0027
     31 C          63.8662   90.6729   15.8530 C.3     1  UNL1        0.4144
     32 F          63.3287   91.0526   17.2010 F       1  UNL1       -0.1682
     33 F          64.9344   91.7177   15.9847 F       1  UNL1       -0.1682
     34 F          62.7980   89.6281   15.7213 F       1  UNL1       -0.1682
@<TRIPOS>BOND
     1     8     9    1
     2     9    10    1
     3     9    11    1
     4     9     2    1
     5     2     3   ar
     6     3     4   ar
     7     4     5   ar
     8     5     1    1
     9     1    12    1
    10    12    13   ar
    11    13    14   ar
    12    14    15   ar
    13    15    16   ar
    14    16    17   ar
    15     1    18    1
    16    18    19    1
    17    19    20    1
    18    20    21    1
    19    21    24    1
    20    24    25    1
    21    25    26   ar
    22    26    27   ar
    23    27    28   ar
    24    28    29   ar
    25    29    30   ar
    26    24    31    1
    27    31    32    1
    28    31    33    1
    29    31    34    1
    30    21    22    1
    31    22    23    1
    32     5     6   ar
    33     6     7   ar
    34     7     2   ar
    35    17    12   ar
    36    23    18    1
    37    30    25   ar
@<TRIPOS>MOLECULE
*****
 34 37 0 0 0
SMALL
GASTEIGER

@<TRIPOS>ATOM
      1 N          62.4070   86.4444   11.7549 N.pl3   1  UNL1       -0.2872
      2 C          62.7954   82.1988   13.1953 C.ar    1  UNL1        0.0715
      3 C          62.4452   83.2901   14.1630 C.ar    1  UNL1        0.0051
      4 C          62.3158   84.7053   13.6829 C.ar    1  UNL1        0.0148
      5 C          62.5365   85.0292   12.2350 C.ar    1  UNL1        0.0515
      6 C          62.8867   83.9380   11.2673 C.ar    1  UNL1        0.0148
      7 C          63.0162   82.5228   11.7474 C.ar    1  UNL1        0.0051
      8 F          63.0543   79.3685   14.1555 F       1  UNL1       -0.1659
      9 C          62.9249   80.7837   13.6754 C.3     1  UNL1        0.4186
     10 F          64.4127   80.8606   13.5008 F       1  UNL1       -0.1659
     11 F          61.4371   80.7068   13.8499 F       1  UNL1       -0.1659
     12 C          61.6154   86.7470   10.5173 C.ar    1  UNL1        0.0710
     13 C          62.0520   86.1930    9.1935 C.ar    1  UNL1        0.0180
     14 C          61.2602   86.4958    7.9559 C.ar    1  UNL1        0.0220
     15 C          60.0320   87.3524    8.0422 C.ar    1  UNL1        0.0990
     16 N          59.5954   87.9064    9.3660 N.ar    1  UNL1       -0.2410
     17 C          60.3871   87.6038   10.6035 C.ar    1  UNL1        0.1136
     18 C          63.0692   87.5569   12.5123 C.3     1  UNL1        0.0800
     19 C          62.9188   88.9748   12.0466 C.3     1  UNL1        0.0375
     20 C          63.5810   90.0873   12.8040 C.3     1  UNL1        0.0743
     21 N          64.3937   89.7820   14.0272 N.3     1  UNL1       -0.2634
     22 C          64.5441   88.3641   14.4930 C.3     1  UNL1        0.0743
     23 C          63.8819   87.2515   13.7356 C.3     1  UNL1        0.0375
     24 C          65.0559   90.8946   14.7847 C.3     1  UNL1        0.1764
     25 C          66.4311   91.3512   14.3970 C.ar    1  UNL1        0.0005
     26 C          67.4845   91.5354   15.4488 C.ar    1  UNL1       -0.0027
     27 C          68.8597   91.9920   15.0612 C.ar    1  UNL1       -0.0003
     28 C          69.1815   92.2644   13.6216 C.ar    1  UNL1       -0.0000
     29 C          68.1280   92.0803   12.5698 C.ar    1  UNL1       -0.0003
     30 C          66.7528   91.6236   12.9575 C.ar    1  UNL1       -0.0027
     31 C          64.3428   91.5506   15.9298 C.3     1  UNL1        0.4144
     32 F          63.6298   92.2065   17.0749 F       1  UNL1       -0.1682
     33 F          63.5802   90.2835   16.1807 F       1  UNL1       -0.1682
     34 F          65.1055   92.8176   15.6789 F       1  UNL1       -0.1682
@<TRIPOS>BOND
     1     8     9    1
     2     9    10    1
     3     9    11    1
     4     9     2    1
     5     2     3   ar
     6     3     4   ar
     7     4     5   ar
     8     5     1    1
     9     1    12    1
    10    12    13   ar
    11    13    14   ar
    12    14    15   ar
    13    15    16   ar
    14    16    17   ar
    15     1    18    1
    16    18    19    1
    17    19    20    1
    18    20    21    1
    19    21    24    1
    20    24    25    1
    21    25    26   ar
    22    26    27   ar
    23    27    28   ar
    24    28    29   ar
    25    29    30   ar
    26    24    31    1
    27    31    32    1
    28    31    33    1
    29    31    34    1
    30    21    22    1
    31    22    23    1
    32     5     6   ar
    33     6     7   ar
    34     7     2   ar
    35    17    12   ar
    36    23    18    1
    37    30    25   ar
@<TRIPOS>MOLECULE
*****
 34 37 0 0 0
SMALL
GASTEIGER

@<TRIPOS>ATOM
      1 N          62.3913   94.1605   -1.8934 N.pl3   1  UNL1       -0.2872
      2 C          65.3342   94.0005   -5.2940 C.ar    1  UNL1        0.0715
      3 C          64.6816   92.7409   -4.8070 C.ar    1  UNL1        0.0051
      4 C          63.7006   92.7942   -3.6735 C.ar    1  UNL1        0.0148
      5 C          63.3723   94.1072   -3.0269 C.ar    1  UNL1        0.0515
      6 C          64.0249   95.3669   -3.5139 C.ar    1  UNL1        0.0148
      7 C          65.0059   95.3136   -4.6474 C.ar    1  UNL1        0.0051
      8 F          67.2962   93.8939   -7.5610 F       1  UNL1       -0.1659
      9 C          66.3152   93.9472   -6.4275 C.3     1  UNL1        0.4186
     10 F          65.9364   92.5194   -6.6881 F       1  UNL1       -0.1659
     11 F          66.6940   95.3750   -6.1668 F       1  UNL1       -0.1659
     12 C          62.8621   94.4957   -0.5093 C.ar    1  UNL1        0.0710
     13 C          62.4658   95.7967    0.1233 C.ar    1  UNL1        0.0180
     14 C          62.9366   96.1319    1.5075 C.ar    1  UNL1        0.0220
     15 C          63.8038   95.1660    2.2592 C.ar    1  UNL1        0.0990
     16 N          64.2002   93.8649    1.6266 N.ar    1  UNL1       -0.2410
     17 C          63.7293   93.5297    0.2424 C.ar    1  UNL1        0.1136
     18 C          60.9395   93.8787   -2.1441 C.3     1  UNL1        0.0800
     19 C          60.1936   92.9337   -1.2493 C.3     1  UNL1        0.0375
     20 C          58.7418   92.6519   -1.4999 C.3     1  UNL1        0.0743
     21 N          58.0359   93.3150   -2.6453 N.3     1  UNL1       -0.2634
     22 C          58.7818   94.2600   -3.5401 C.3     1  UNL1        0.0743
     23 C          60.2337   94.5418   -3.2895 C.3     1  UNL1        0.0375
     24 C          56.5840   93.0331   -2.8960 C.3     1  UNL1        0.1764
     25 C          55.5906   94.1570   -2.8938 C.ar    1  UNL1        0.0005
     26 C          55.2476   94.8573   -4.1751 C.ar    1  UNL1       -0.0027
     27 C          54.2542   95.9811   -4.1730 C.ar    1  UNL1       -0.0003
     28 C          53.6036   96.4046   -2.8894 C.ar    1  UNL1       -0.0000
     29 C          53.9466   95.7043   -1.6080 C.ar    1  UNL1       -0.0003
     30 C          54.9401   94.5804   -1.6103 C.ar    1  UNL1       -0.0027
     31 C          56.1257   91.6274   -3.1488 C.3     1  UNL1        0.4144
     32 F          55.6674   90.2217   -3.4016 F       1  UNL1       -0.1682
     33 F          56.6077   91.7251   -4.5659 F       1  UNL1       -0.1682
     34 F          55.6438   91.5297   -1.7317 F       1  UNL1       -0.1682
@<TRIPOS>BOND
     1     8     9    1
     2     9    10    1
     3     9    11    1
     4     9     2    1
     5     2     3   ar
     6     3     4   ar
     7     4     5   ar
     8     5     1    1
     9     1    12    1
    10    12    13   ar
    11    13    14   ar
    12    14    15   ar
    13    15    16   ar
    14    16    17   ar
    15     1    18    1
    16    18    19    1
    17    19    20    1
    18    20    21    1
    19    21    24    1
    20    24    25    1
    21    25    26   ar
    22    26    27   ar
    23    27    28   ar
    24    28    29   ar
    25    29    30   ar
    26    24    31    1
    27    31    32    1
    28    31    33    1
    29    31    34    1
    30    21    22    1
    31    22    23    1
    32     5     6   ar
    33     6     7   ar
    34     7     2   ar
    35    17    12   ar
    36    23    18    1
    37    30    25   ar
@<TRIPOS>MOLECULE
*****
 34 37 0 0 0
SMALL
GASTEIGER

@<TRIPOS>ATOM
      1 N          60.7866   93.6683    1.1449 N.pl3   1  UNL1       -0.2872
      2 C          64.6876   95.5809   -0.0274 C.ar    1  UNL1        0.0715
      3 C          64.2551   94.3000   -0.6772 C.ar    1  UNL1        0.0051
      4 C          62.9547   93.6625   -0.2865 C.ar    1  UNL1        0.0148
      5 C          62.0869   94.3058    0.7541 C.ar    1  UNL1        0.0515
      6 C          62.5194   95.5867    1.4040 C.ar    1  UNL1        0.0148
      7 C          63.8197   96.2242    1.0133 C.ar    1  UNL1        0.0051
      8 F          67.2883   96.8559   -0.8089 F       1  UNL1       -0.1659
      9 C          65.9879   96.2184   -0.4181 C.3     1  UNL1        0.4186
     10 F          66.2187   96.6218    1.0081 F       1  UNL1       -0.1659
     11 F          65.7571   95.8149   -1.8443 F       1  UNL1       -0.1659
     12 C          60.6905   92.8793    2.4170 C.ar    1  UNL1        0.0710
     13 C          59.3921   92.8186    3.1656 C.ar    1  UNL1        0.0180
     14 C          59.2960   92.0295    4.4377 C.ar    1  UNL1        0.0220
     15 C          60.4984   91.3012    4.9611 C.ar    1  UNL1        0.0990
     16 N          61.7968   91.3620    4.2125 N.ar    1  UNL1       -0.2410
     17 C          61.8928   92.1510    2.9404 C.ar    1  UNL1        0.1136
     18 C          59.5823   93.8198    0.2636 C.3     1  UNL1        0.0800
     19 C          59.1145   95.1871   -0.1387 C.3     1  UNL1        0.0375
     20 C          57.9103   95.3386   -1.0200 C.3     1  UNL1        0.0743
     21 N          57.1737   94.1229   -1.4991 N.3     1  UNL1       -0.2634
     22 C          57.6414   92.7557   -1.0968 C.3     1  UNL1        0.0743
     23 C          58.8457   92.6041   -0.2154 C.3     1  UNL1        0.0375
     24 C          55.9694   94.2744   -2.3804 C.3     1  UNL1        0.1764
     25 C          56.0221   93.8163   -3.8077 C.ar    1  UNL1        0.0005
     26 C          55.7816   94.7948   -4.9189 C.ar    1  UNL1       -0.0027
     27 C          55.8343   94.3366   -6.3462 C.ar    1  UNL1       -0.0003
     28 C          56.1276   92.8999   -6.6624 C.ar    1  UNL1       -0.0000
     29 C          56.3681   91.9214   -5.5512 C.ar    1  UNL1       -0.0003
     30 C          56.3153   92.3796   -4.1239 C.ar    1  UNL1       -0.0027
     31 C          54.7124   94.8842   -1.8344 C.3     1  UNL1        0.4144
     32 F          53.4554   95.4939   -1.2883 F       1  UNL1       -0.1682
     33 F          55.2474   96.2536   -2.1318 F       1  UNL1       -0.1682
     34 F          54.1773   93.5148   -1.5369 F       1  UNL1       -0.1682
@<TRIPOS>BOND
     1     8     9    1
     2     9    10    1
     3     9    11    1
     4     9     2    1
     5     2     3   ar
     6     3     4   ar
     7     4     5   ar
     8     5     1    1
     9     1    12    1
    10    12    13   ar
    11    13    14   ar
    12    14    15   ar
    13    15    16   ar
    14    16    17   ar
    15     1    18    1
    16    18    19    1
    17    19    20    1
    18    20    21    1
    19    21    24    1
    20    24    25    1
    21    25    26   ar
    22    26    27   ar
    23    27    28   ar
    24    28    29   ar
    25    29    30   ar
    26    24    31    1
    27    31    32    1
    28    31    33    1
    29    31    34    1
    30    21    22    1
    31    22    23    1
    32     5     6   ar
    33     6     7   ar
    34     7     2   ar
    35    17    12   ar
    36    23    18    1
    37    30    25   ar
@<TRIPOS>MOLECULE
*****
 34 37 0 0 0
SMALL
GASTEIGER

@<TRIPOS>ATOM
      1 N          60.7661   93.5268    0.9642 N.pl3   1  UNL1       -0.2872
      2 C          64.6907   95.5242    0.0377 C.ar    1  UNL1        0.0715
      3 C          63.7807   96.1053    1.0790 C.ar    1  UNL1        0.0051
      4 C          62.4726   95.4395    1.3878 C.ar    1  UNL1        0.0148
      5 C          62.0743   94.1926    0.6554 C.ar    1  UNL1        0.0515
      6 C          62.9842   93.6115   -0.3859 C.ar    1  UNL1        0.0148
      7 C          64.2924   94.2773   -0.6947 C.ar    1  UNL1        0.0051
      8 F          67.3070   96.8558   -0.5799 F       1  UNL1       -0.1659
      9 C          65.9988   96.1900   -0.2711 C.3     1  UNL1        0.4186
     10 F          66.1763   96.5156    1.1823 F       1  UNL1       -0.1659
     11 F          65.8214   95.8644   -1.7246 F       1  UNL1       -0.1659
     12 C          60.5716   92.8284    2.2773 C.ar    1  UNL1        0.0710
     13 C          59.2036   92.7446    2.8869 C.ar    1  UNL1        0.0180
     14 C          59.0091   92.0461    4.2001 C.ar    1  UNL1        0.0220
     15 C          60.1826   91.4314    4.9036 C.ar    1  UNL1        0.0990
     16 N          61.5506   91.5151    4.2940 N.ar    1  UNL1       -0.2410
     17 C          61.7451   92.2136    2.9809 C.ar    1  UNL1        0.1136
     18 C          59.6524   93.5595   -0.0401 C.3     1  UNL1        0.0800
     19 C          59.0691   94.8726   -0.4708 C.3     1  UNL1        0.0375
     20 C          57.9555   94.9053   -1.4751 C.3     1  UNL1        0.0743
     21 N          57.4250   93.6249   -2.0487 N.3     1  UNL1       -0.2634
     22 C          58.0082   92.3117   -1.6180 C.3     1  UNL1        0.0743
     23 C          59.1220   92.2790   -0.6137 C.3     1  UNL1        0.0375
     24 C          56.3113   93.6576   -3.0530 C.3     1  UNL1        0.1764
     25 C          55.1991   94.6534   -2.9074 C.ar    1  UNL1        0.0005
     26 C          54.4819   94.7906   -1.5971 C.ar    1  UNL1       -0.0027
     27 C          53.3697   95.7865   -1.4515 C.ar    1  UNL1       -0.0003
     28 C          52.9747   96.6453   -2.6163 C.ar    1  UNL1       -0.0000
     29 C          53.6918   96.5081   -3.9265 C.ar    1  UNL1       -0.0003
     30 C          54.8041   95.5121   -4.0721 C.ar    1  UNL1       -0.0027
     31 C          56.3098   92.6944   -4.2029 C.3     1  UNL1        0.4144
     32 F          56.3083   91.7312   -5.3528 F       1  UNL1       -0.1682
     33 F          57.1313   93.6559   -5.0094 F       1  UNL1       -0.1682
     34 F          55.4883   91.7328   -3.3964 F       1  UNL1       -0.1682
@<TRIPOS>BOND
     1     8     9    1
     2     9    10    1
     3     9    11    1
     4     9     2    1
     5     2     3   ar
     6     3     4   ar
     7     4     5   ar
     8     5     1    1
     9     1    12    1
    10    12    13   ar
    11    13    14   ar
    12    14    15   ar
    13    15    16   ar
    14    16    17   ar
    15     1    18    1
    16    18    19    1
    17    19    20    1
    18    20    21    1
    19    21    24    1
    20    24    25    1
    21    25    26   ar
    22    26    27   ar
    23    27    28   ar
    24    28    29   ar
    25    29    30   ar
    26    24    31    1
    27    31    32    1
    28    31    33    1
    29    31    34    1
    30    21    22    1
    31    22    23    1
    32     5     6   ar
    33     6     7   ar
    34     7     2   ar
    35    17    12   ar
    36    23    18    1
    37    30    25   ar
