@<TRIPOS>MOLECULE
*****
 38 43 0 0 0
SMALL
GASTEIGER

@<TRIPOS>ATOM
      1 C          63.6862   86.7225   14.8018 C.2     1  UNL1        0.0357
      2 C          63.0846   86.5013   16.1579 C.2     1  UNL1        0.0021
      3 C          62.8958   87.6592   17.0925 C.2     1  UNL1        0.0205
      4 C          63.3087   89.0383   16.6711 C.2     1  UNL1        0.1007
      5 N          63.2458   90.3631   17.3720 N.2     1  UNL1       -0.1483
      6 N          63.8087   91.4029   16.4491 N.2     1  UNL1       -0.1483
      7 C          64.2194   90.7209   15.1778 C.2     1  UNL1        0.1007
      8 C          63.9104   89.2595   15.3150 C.2     1  UNL1        0.0211
      9 C          64.0992   88.1016   14.3804 C.3     1  UNL1        0.0604
     10 C          64.8316   91.3839   13.9796 C.ar    1  UNL1        0.0192
     11 C          66.1543   92.0807   14.1021 C.ar    1  UNL1        0.0028
     12 C          66.7665   92.7437   12.9039 C.ar    1  UNL1        0.0146
     13 C          66.0562   92.7098   11.5833 C.ar    1  UNL1        0.0479
     14 C          64.7335   92.0130   11.4608 C.ar    1  UNL1        0.0146
     15 C          64.1213   91.3500   12.6590 C.ar    1  UNL1        0.0028
     16 N          66.6684   93.3728   10.3851 N.pl3   1  UNL1       -0.3058
     17 C          67.7448   92.6733    9.6091 C.3     1  UNL1        0.1024
     18 C          66.8877   92.4107   10.8118 C.3     1  UNL1        0.0241
     19 C          65.9982   93.6012   11.0160 C.3     1  UNL1        0.0241
     20 C          66.2042   94.7352    9.9629 C.3     1  UNL1        0.1024
     21 C          66.8165   95.3982    8.7647 C.3     1  UNL1        0.1618
     22 O          67.8929   94.6987    7.9887 O.3     1  UNL1       -0.3503
     23 C          68.3570   93.3363    8.4110 C.3     1  UNL1        0.1618
     24 N          62.7534   85.1358   12.9682 N.am    1  UNL1       -0.2989
     25 C          63.8750   85.5646   13.8671 C.2     1  UNL1        0.2424
     26 O          65.1855   84.8356   13.8313 O.2     1  UNL1       -0.2705
     27 H          61.8934   85.6143   12.9917 H       1  UNL1        0.1500
     28 C          62.9422   83.9778   12.0335 C.3     1  UNL1        0.0951
     29 C          62.6853   82.5792   12.5107 C.ar    1  UNL1        0.0061
     30 C          62.9540   81.4157   11.6028 C.ar    1  UNL1       -0.0018
     31 C          62.6971   80.0170   12.0800 C.ar    1  UNL1       -0.0002
     32 C          62.1715   79.7818   13.4651 C.ar    1  UNL1        0.0008
     33 C          61.9029   80.9453   14.3729 C.ar    1  UNL1        0.0111
     34 C          62.1598   82.3439   13.8957 C.ar    1  UNL1        0.0552
     35 CL         61.8912   83.5074   14.8036 Cl      1  UNL1       -0.0825
     36 C          64.4988   83.3986   10.0357 C.3     1  UNL1        0.0020
     37 C          63.3879   84.2186   10.6216 C.3     1  UNL1        0.0222
     38 C          62.7226   85.2794    9.7957 C.3     1  UNL1        0.0020
@<TRIPOS>BOND
     1    36    37    1
     2    37    38    1
     3    37    28    1
     4    28    24    1
     5    24    25   am
     6    25    26    2
     7    25     1    1
     8     1     2    2
     9     2     3    1
    10     3     4    2
    11     4     5    1
    12     5     6    2
    13     6     7    1
    14     7    10    1
    15    10    11   ar
    16    11    12   ar
    17    12    13   ar
    18    13    16    1
    19    16    17    1
    20    17    18    1
    21    18    19    1
    22    19    20    1
    23    20    21    1
    24    21    22    1
    25    22    23    1
    26    13    14   ar
    27    14    15   ar
    28     7     8    2
    29     8     9    1
    30    28    29    1
    31    29    30   ar
    32    30    31   ar
    33    31    32   ar
    34    32    33   ar
    35    33    34   ar
    36    34    35    1
    37     9     1    1
    38    34    29   ar
    39     8     4    1
    40    15    10   ar
    41    20    16    1
    42    23    17    1
    43    24    27    1
@<TRIPOS>MOLECULE
*****
 38 43 0 0 0
SMALL
GASTEIGER

@<TRIPOS>ATOM
      1 C          63.7280   86.9874   15.2930 C.2     1  UNL1        0.0357
      2 C          63.0856   86.9284   16.6472 C.2     1  UNL1        0.0021
      3 C          62.8947   88.1860   17.4421 C.2     1  UNL1        0.0205
      4 C          63.3463   89.5026   16.8829 C.2     1  UNL1        0.1007
      5 N          63.2909   90.8979   17.4309 N.2     1  UNL1       -0.1483
      6 N          63.8991   91.8191   16.4154 N.2     1  UNL1       -0.1483
      7 C          64.3304   90.9932   15.2398 C.2     1  UNL1        0.1007
      8 C          63.9888   89.5616   15.5288 C.2     1  UNL1        0.0211
      9 C          64.1796   88.3040   14.7338 C.3     1  UNL1        0.0604
     10 C          64.9879   91.5086   13.9940 C.ar    1  UNL1        0.0192
     11 C          64.2394   91.5043   12.6941 C.ar    1  UNL1        0.0028
     12 C          64.8969   92.0197   11.4483 C.ar    1  UNL1        0.0146
     13 C          66.3029   92.5392   11.5022 C.ar    1  UNL1        0.0479
     14 C          67.0515   92.5435   12.8021 C.ar    1  UNL1        0.0146
     15 C          66.3940   92.0281   14.0479 C.ar    1  UNL1        0.0028
     16 N          66.9604   93.0546   10.2564 N.pl3   1  UNL1       -0.3058
     17 C          68.0424   92.2546    9.5935 C.3     1  UNL1        0.1024
     18 C          67.1483   92.1419   10.7926 C.3     1  UNL1        0.0241
     19 C          66.2786   93.3631   10.8387 C.3     1  UNL1        0.0241
     20 C          66.5360   94.3698    9.6734 C.3     1  UNL1        0.1024
     21 C          67.1935   94.8852    8.4276 C.3     1  UNL1        0.1618
     22 O          68.2755   94.0852    7.7647 O.3     1  UNL1       -0.3503
     23 C          68.6999   92.7699    8.3477 C.3     1  UNL1        0.1618
     24 N          62.7262   84.9770   13.9873 N.am    1  UNL1       -0.2989
     25 C          63.9189   85.7298   14.4980 C.2     1  UNL1        0.2424
     26 O          65.3025   85.2249   14.2137 O.2     1  UNL1       -0.2705
     27 H          61.8181   85.3084   14.1739 H       1  UNL1        0.1500
     28 C          62.9171   83.7194   13.1923 C.3     1  UNL1        0.0951
     29 C          63.1873   83.7973   11.7189 C.ar    1  UNL1        0.0061
     30 C          64.1020   82.8008   11.0704 C.ar    1  UNL1       -0.0018
     31 C          64.3722   82.8787    9.5970 C.ar    1  UNL1       -0.0002
     32 C          63.7277   83.9531    8.7720 C.ar    1  UNL1        0.0008
     33 C          62.8131   84.9495    9.4205 C.ar    1  UNL1        0.0111
     34 C          62.5429   84.8716   10.8939 C.ar    1  UNL1        0.0552
     35 CL         61.6282   85.8680   11.5424 Cl      1  UNL1       -0.0825
     36 C          61.6409   81.5051   13.6588 C.3     1  UNL1        0.0020
     37 C          62.8378   82.3839   13.8707 C.3     1  UNL1        0.0222
     38 C          63.9554   81.9274   14.7609 C.3     1  UNL1        0.0020
@<TRIPOS>BOND
     1    36    37    1
     2    37    38    1
     3    37    28    1
     4    28    24    1
     5    24    25   am
     6    25    26    2
     7    25     1    1
     8     1     2    2
     9     2     3    1
    10     3     4    2
    11     4     5    1
    12     5     6    2
    13     6     7    1
    14     7    10    1
    15    10    11   ar
    16    11    12   ar
    17    12    13   ar
    18    13    16    1
    19    16    17    1
    20    17    18    1
    21    18    19    1
    22    19    20    1
    23    20    21    1
    24    21    22    1
    25    22    23    1
    26    13    14   ar
    27    14    15   ar
    28     7     8    2
    29     8     9    1
    30    28    29    1
    31    29    30   ar
    32    30    31   ar
    33    31    32   ar
    34    32    33   ar
    35    33    34   ar
    36    34    35    1
    37     9     1    1
    38    34    29   ar
    39     8     4    1
    40    15    10   ar
    41    20    16    1
    42    23    17    1
    43    24    27    1
@<TRIPOS>MOLECULE
*****
 38 43 0 0 0
SMALL
GASTEIGER

@<TRIPOS>ATOM
      1 C          63.5225   86.6768   14.4815 C.2     1  UNL1        0.0357
      2 C          62.9362   86.3034   15.8107 C.2     1  UNL1        0.0021
      3 C          62.7955   87.3395   16.8861 C.2     1  UNL1        0.0205
      4 C          63.2411   88.7491   16.6323 C.2     1  UNL1        0.1007
      5 N          63.2274   89.9767   17.4943 N.2     1  UNL1       -0.1483
      6 N          63.8051   91.1089   16.6978 N.2     1  UNL1       -0.1483
      7 C          64.1760   90.5810   15.3436 C.2     1  UNL1        0.1007
      8 C          63.8274   89.1226   15.3031 C.2     1  UNL1        0.0211
      9 C          63.9681   88.0865   14.2277 C.3     1  UNL1        0.0604
     10 C          64.7880   91.3725   14.2260 C.ar    1  UNL1        0.0192
     11 C          66.0568   92.1386   14.4568 C.ar    1  UNL1        0.0028
     12 C          66.6688   92.9302   13.3392 C.ar    1  UNL1        0.0146
     13 C          66.0121   92.9556   11.9909 C.ar    1  UNL1        0.0479
     14 C          64.7433   92.1894   11.7601 C.ar    1  UNL1        0.0146
     15 C          64.1313   91.3979   12.8777 C.ar    1  UNL1        0.0028
     16 N          66.6241   93.7471   10.8734 N.pl3   1  UNL1       -0.3058
     17 C          66.5230   95.2437   10.8713 C.3     1  UNL1        0.1024
     18 C          66.0862   94.0981   11.7355 C.3     1  UNL1        0.0241
     19 C          66.5562   92.8270   11.0926 C.3     1  UNL1        0.0241
     20 C          67.3371   93.0420    9.7578 C.3     1  UNL1        0.1024
     21 C          67.9491   93.8336    8.6403 C.3     1  UNL1        0.1618
     22 O          67.8480   95.3301    8.6382 O.3     1  UNL1       -0.3503
     23 C          67.1350   96.0352    9.7538 C.3     1  UNL1        0.1618
     24 N          62.6796   85.5958   12.2744 N.am    1  UNL1       -0.2989
     25 C          63.6632   85.6407   13.4060 C.2     1  UNL1        0.2424
     26 O          64.7875   84.6493   13.4622 O.2     1  UNL1       -0.2705
     27 H          61.9417   86.2465   12.2376 H       1  UNL1        0.1500
     28 C          62.8203   84.5597   11.1989 C.3     1  UNL1        0.0951
     29 C          62.4211   84.8825    9.7896 C.ar    1  UNL1        0.0061
     30 C          63.0577   84.1530    8.6438 C.ar    1  UNL1       -0.0018
     31 C          62.6584   84.4759    7.2345 C.ar    1  UNL1       -0.0002
     32 C          61.6225   85.5283    6.9708 C.ar    1  UNL1        0.0008
     33 C          60.9860   86.2578    8.1165 C.ar    1  UNL1        0.0111
     34 C          61.3853   85.9349    9.5259 C.ar    1  UNL1        0.0552
     35 CL         60.7487   86.6644   10.6716 Cl      1  UNL1       -0.0825
     36 C          62.5535   82.2600   12.3779 C.3     1  UNL1        0.0020
     37 C          63.3603   83.2007   11.5328 C.3     1  UNL1        0.0222
     38 C          64.7071   82.7824   11.0217 C.3     1  UNL1        0.0020
@<TRIPOS>BOND
     1    36    37    1
     2    37    38    1
     3    37    28    1
     4    28    24    1
     5    24    25   am
     6    25    26    2
     7    25     1    1
     8     1     2    2
     9     2     3    1
    10     3     4    2
    11     4     5    1
    12     5     6    2
    13     6     7    1
    14     7    10    1
    15    10    11   ar
    16    11    12   ar
    17    12    13   ar
    18    13    16    1
    19    16    17    1
    20    17    18    1
    21    18    19    1
    22    19    20    1
    23    20    21    1
    24    21    22    1
    25    22    23    1
    26    13    14   ar
    27    14    15   ar
    28     7     8    2
    29     8     9    1
    30    28    29    1
    31    29    30   ar
    32    30    31   ar
    33    31    32   ar
    34    32    33   ar
    35    33    34   ar
    36    34    35    1
    37     9     1    1
    38    34    29   ar
    39     8     4    1
    40    15    10   ar
    41    20    16    1
    42    23    17    1
    43    24    27    1
@<TRIPOS>MOLECULE
*****
 38 43 0 0 0
SMALL
GASTEIGER

@<TRIPOS>ATOM
      1 C          62.0714   86.1944   11.1364 C.2     1  UNL1        0.0357
      2 C          60.9241   86.0768   10.1774 C.2     1  UNL1        0.0021
      3 C          60.3457   87.3080    9.5452 C.2     1  UNL1        0.0205
      4 C          60.9147   88.6568    9.8722 C.2     1  UNL1        0.1007
      5 N          60.5550   90.0372    9.4081 N.2     1  UNL1       -0.1483
      6 N          61.4801   91.0079   10.0804 N.2     1  UNL1       -0.1483
      7 C          62.4114   90.2275   10.9599 C.2     1  UNL1        0.1007
      8 C          62.0620   88.7744   10.8312 C.2     1  UNL1        0.0211
      9 C          62.6403   87.5432   11.4633 C.3     1  UNL1        0.0604
     10 C          63.5009   90.7996   11.8176 C.ar    1  UNL1        0.0192
     11 C          63.6220   90.3830   13.2535 C.ar    1  UNL1        0.0028
     12 C          64.7115   90.9552   14.1112 C.ar    1  UNL1        0.0146
     13 C          65.6800   91.9439   13.5330 C.ar    1  UNL1        0.0479
     14 C          65.5589   92.3606   12.0971 C.ar    1  UNL1        0.0146
     15 C          64.4694   91.7884   11.2395 C.ar    1  UNL1        0.0028
     16 N          66.7695   92.5161   14.3907 N.pl3   1  UNL1       -0.3058
     17 C          67.6392   91.6051   15.2053 C.3     1  UNL1        0.1024
     18 C          66.4871   91.4881   14.2520 C.3     1  UNL1        0.0241
     19 C          66.1118   92.8704   13.8065 C.3     1  UNL1        0.0241
     20 C          66.9892   93.9993   14.4338 C.3     1  UNL1        0.1024
     21 C          68.0787   94.5714   15.2914 C.3     1  UNL1        0.1618
     22 O          68.9485   93.6604   16.1060 O.3     1  UNL1       -0.3503
     23 C          68.7287   92.1772   16.0630 C.3     1  UNL1        0.1618
     24 N          62.7449   84.8610   13.2621 N.am    1  UNL1       -0.2989
     25 C          62.6497   84.9631   11.7686 C.2     1  UNL1        0.2424
     26 O          63.1329   83.8341   10.9073 O.2     1  UNL1       -0.2705
     27 H          62.4278   85.6020   13.8274 H       1  UNL1        0.1500
     28 C          63.3233   83.6297   13.8943 C.3     1  UNL1        0.0951
     29 C          62.6531   82.3018   13.7007 C.ar    1  UNL1        0.0061
     30 C          61.3363   82.0227   14.3628 C.ar    1  UNL1       -0.0018
     31 C          60.6661   80.6948   14.1693 C.ar    1  UNL1       -0.0002
     32 C          61.3127   79.6460   13.3136 C.ar    1  UNL1        0.0008
     33 C          62.6294   79.9251   12.6516 C.ar    1  UNL1        0.0111
     34 C          63.2996   81.2530   12.8451 C.ar    1  UNL1        0.0552
     35 CL         64.6163   81.5322   12.1831 Cl      1  UNL1       -0.0825
     36 C          65.4956   84.8956   14.5485 C.3     1  UNL1        0.0020
     37 C          64.5718   83.7264   14.7200 C.3     1  UNL1        0.0222
     38 C          64.8965   82.6539   15.7171 C.3     1  UNL1        0.0020
@<TRIPOS>BOND
     1    36    37    1
     2    37    38    1
     3    37    28    1
     4    28    24    1
     5    24    25   am
     6    25    26    2
     7    25     1    1
     8     1     2    2
     9     2     3    1
    10     3     4    2
    11     4     5    1
    12     5     6    2
    13     6     7    1
    14     7    10    1
    15    10    11   ar
    16    11    12   ar
    17    12    13   ar
    18    13    16    1
    19    16    17    1
    20    17    18    1
    21    18    19    1
    22    19    20    1
    23    20    21    1
    24    21    22    1
    25    22    23    1
    26    13    14   ar
    27    14    15   ar
    28     7     8    2
    29     8     9    1
    30    28    29    1
    31    29    30   ar
    32    30    31   ar
    33    31    32   ar
    34    32    33   ar
    35    33    34   ar
    36    34    35    1
    37     9     1    1
    38    34    29   ar
    39     8     4    1
    40    15    10   ar
    41    20    16    1
    42    23    17    1
    43    24    27    1
