@<TRIPOS>MOLECULE
*****
 33 35 0 0 0
SMALL
GASTEIGER

@<TRIPOS>ATOM
      1 S          63.9815   88.4709   13.7519 S.O2    1  UNL1        0.0633
      2 O          65.0975   88.2840   14.7366 O.2     1  UNL1       -0.1528
      3 O          62.8656   88.6579   12.7673 O.2     1  UNL1       -0.1528
      4 C          63.4015   87.6999   16.5925 C.3     1  UNL1        0.0206
      5 C          63.1832   86.7097   15.4871 C.3     1  UNL1        0.0956
      6 C          62.6750   85.3341   15.8020 C.3     1  UNL1        0.0900
      7 N          62.4567   84.3439   14.6966 N.3     1  UNL1       -0.2698
      8 C          62.7467   84.7294   13.2763 C.3     1  UNL1        0.0915
      9 C          63.2550   86.1050   12.9615 C.3     1  UNL1        0.1131
     10 N          63.4732   87.0952   14.0669 N.3     1  UNL1       -0.1541
     11 C          61.9484   82.9682   15.0116 C.3     1  UNL1        0.0807
     12 C          62.4216   81.7920   14.2098 C.3     1  UNL1        0.0833
     13 C          62.3874   80.5030   13.4435 C.3     1  UNL1        0.0105
     14 C          61.1252   81.0584   14.0336 C.3     1  UNL1        0.0105
     15 C          63.8824   82.1172   14.1075 C.2     1  UNL1        0.2198
     16 N          64.6471   82.5263   15.3313 N.am    1  UNL1       -0.3288
     17 O          64.5784   82.0332   12.7814 O.2     1  UNL1       -0.2753
     18 H          64.1903   82.5814   16.2017 H       1  UNL1        0.1449
     19 H          65.6058   82.7397   15.2642 H       1  UNL1        0.1449
     20 C          64.4898   89.8466   13.4370 C.ar    1  UNL1        0.1222
     21 C          65.5183   90.4868   14.3215 C.ar    1  UNL1        0.0197
     22 C          66.0266   91.8625   14.0065 C.ar    1  UNL1       -0.0004
     23 C          65.5064   92.5979   12.8072 C.ar    1  UNL1        0.0099
     24 C          64.4779   91.9577   11.9227 C.ar    1  UNL1       -0.0004
     25 C          63.9696   90.5820   12.2376 C.ar    1  UNL1        0.0197
     26 C          66.0147   93.9736   12.4923 C.3     1  UNL1        0.1945
     27 C          66.5231   95.3493   12.1773 C.3     1  UNL1        0.0428
     28 O          65.8505   94.3637   13.9313 O.3     1  UNL1       -0.3751
     29 H          65.5051   93.6090   14.4335 H       1  UNL1        0.2110
     30 C          66.1790   93.5835   11.0533 C.3     1  UNL1        0.4230
     31 F          66.3433   93.1933    9.6142 F       1  UNL1       -0.1673
     32 F          67.2128   92.4972   11.0874 F       1  UNL1       -0.1673
     33 F          65.1544   94.6057   10.6591 F       1  UNL1       -0.1673
@<TRIPOS>BOND
     1     5     4    1
     2     5     6    1
     3     6     7    1
     4     7    11    1
     5    11    12    1
     6    12    15    1
     7    15    16   am
     8    15    17    2
     9    12    13    1
    10    13    14    1
    11     7     8    1
    12     8     9    1
    13     9    10    1
    14    10     1    1
    15     1     2    2
    16     1     3    2
    17     1    20    1
    18    20    21   ar
    19    21    22   ar
    20    22    23   ar
    21    23    26    1
    22    26    27    1
    23    26    28    1
    24    26    30    1
    25    30    31    1
    26    30    32    1
    27    30    33    1
    28    23    24   ar
    29    24    25   ar
    30    10     5    1
    31    25    20   ar
    32    14    12    1
    33    16    18    1
    34    16    19    1
    35    28    29    1
@<TRIPOS>MOLECULE
*****
 33 35 0 0 0
SMALL
GASTEIGER

@<TRIPOS>ATOM
      1 S          61.2022   86.8466    9.1746 S.O2    1  UNL1        0.0633
      2 O          60.3346   85.7359    8.6612 O.2     1  UNL1       -0.1528
      3 O          62.0698   87.9573    9.6879 O.2     1  UNL1       -0.1528
      4 C          63.1624   84.9223    7.9685 C.3     1  UNL1        0.0206
      5 C          62.9120   84.9096    9.4474 C.3     1  UNL1        0.0956
      6 C          63.6417   83.9348   10.3233 C.3     1  UNL1        0.0900
      7 N          63.3913   83.9221   11.8022 N.3     1  UNL1       -0.2698
      8 C          62.4112   84.8842   12.4052 C.3     1  UNL1        0.0915
      9 C          61.6815   85.8591   11.5293 C.3     1  UNL1        0.1131
     10 N          61.9319   85.8717   10.0504 N.3     1  UNL1       -0.1541
     11 C          64.1211   82.9472   12.6781 C.3     1  UNL1        0.0807
     12 C          63.3542   82.0573   13.6109 C.3     1  UNL1        0.0833
     13 C          62.5849   80.8721   14.1143 C.3     1  UNL1        0.0105
     14 C          63.0805   80.8982   12.6989 C.3     1  UNL1        0.0105
     15 C          63.3617   82.9072   14.8468 C.2     1  UNL1        0.2198
     16 N          64.6641   83.3060   15.4750 N.am    1  UNL1       -0.3288
     17 O          62.0666   83.3583   15.4545 O.2     1  UNL1       -0.2753
     18 H          65.5140   83.0098   15.0761 H       1  UNL1        0.1449
     19 H          64.6689   83.8638   16.2862 H       1  UNL1        0.1449
     20 C          60.4724   87.8214    8.2987 C.ar    1  UNL1        0.1222
     21 C          59.5877   87.3218    7.1953 C.ar    1  UNL1        0.0197
     22 C          58.8579   88.2967    6.3194 C.ar    1  UNL1       -0.0004
     23 C          59.0129   89.7711    6.5469 C.ar    1  UNL1        0.0099
     24 C          59.8976   90.2708    7.6504 C.ar    1  UNL1       -0.0004
     25 C          60.6274   89.2960    8.5262 C.ar    1  UNL1        0.0197
     26 C          58.2832   90.7459    5.6711 C.3     1  UNL1        0.1945
     27 C          57.5534   91.7208    4.7952 C.3     1  UNL1        0.0428
     28 O          56.9730   90.2241    6.1819 O.3     1  UNL1       -0.3751
     29 H          57.1355   89.5173    6.8261 H       1  UNL1        0.2110
     30 C          59.5934   91.2678    5.1602 C.3     1  UNL1        0.4230
     31 F          60.9037   91.7896    4.6493 F       1  UNL1       -0.1673
     32 F          60.4547   90.0443    5.0536 F       1  UNL1       -0.1673
     33 F          59.0325   92.6589    5.1427 F       1  UNL1       -0.1673
@<TRIPOS>BOND
     1     5     4    1
     2     5     6    1
     3     6     7    1
     4     7    11    1
     5    11    12    1
     6    12    15    1
     7    15    16   am
     8    15    17    2
     9    12    13    1
    10    13    14    1
    11     7     8    1
    12     8     9    1
    13     9    10    1
    14    10     1    1
    15     1     2    2
    16     1     3    2
    17     1    20    1
    18    20    21   ar
    19    21    22   ar
    20    22    23   ar
    21    23    26    1
    22    26    27    1
    23    26    28    1
    24    26    30    1
    25    30    31    1
    26    30    32    1
    27    30    33    1
    28    23    24   ar
    29    24    25   ar
    30    10     5    1
    31    25    20   ar
    32    14    12    1
    33    16    18    1
    34    16    19    1
    35    28    29    1
@<TRIPOS>MOLECULE
*****
 33 35 0 0 0
SMALL
GASTEIGER

@<TRIPOS>ATOM
      1 S          64.7661   91.0107   13.8301 S.O2    1  UNL1        0.0633
      2 O          66.1541   90.7545   14.3377 O.2     1  UNL1       -0.1528
      3 O          63.3780   91.2669   13.3226 O.2     1  UNL1       -0.1528
      4 C          64.2004   91.4731   10.9204 C.3     1  UNL1        0.0206
      5 C          64.9589   92.4990   11.7093 C.3     1  UNL1        0.0956
      6 C          65.4345   93.7561   11.0434 C.3     1  UNL1        0.0900
      7 N          66.1929   94.7820   11.8323 N.3     1  UNL1       -0.2698
      8 C          66.4757   94.5508   13.2871 C.3     1  UNL1        0.0915
      9 C          66.0001   93.2937   13.9530 C.3     1  UNL1        0.1131
     10 N          65.2417   92.2678   13.1641 N.3     1  UNL1       -0.1541
     11 C          66.6685   96.0391   11.1663 C.3     1  UNL1        0.0807
     12 C          66.2604   96.3406    9.7547 C.3     1  UNL1        0.0833
     13 C          65.4150   96.7736    8.5938 C.3     1  UNL1        0.0105
     14 C          64.8595   96.8242    9.9861 C.3     1  UNL1        0.0105
     15 C          67.5196   95.9617    9.0329 C.2     1  UNL1        0.2198
     16 N          68.0008   96.7901    7.8788 N.am    1  UNL1       -0.3288
     17 O          68.2976   94.7543    9.4654 O.2     1  UNL1       -0.2753
     18 H          67.4902   97.5826    7.5950 H       1  UNL1        0.1449
     19 H          68.8272   96.5414    7.4051 H       1  UNL1        0.1449
     20 C          64.2905   89.7536   14.4961 C.ar    1  UNL1        0.1222
     21 C          63.7629   89.8017   15.8994 C.ar    1  UNL1        0.0197
     22 C          63.2874   88.5445   16.5654 C.ar    1  UNL1       -0.0004
     23 C          63.3394   87.2393   15.8280 C.ar    1  UNL1        0.0099
     24 C          63.8670   87.1912   14.4247 C.ar    1  UNL1       -0.0004
     25 C          64.3426   88.4483   13.7587 C.ar    1  UNL1        0.0197
     26 C          62.8639   85.9823   16.4940 C.3     1  UNL1        0.1945
     27 C          62.3884   84.7251   17.1600 C.3     1  UNL1        0.0428
     28 O          62.0253   86.7972   17.4335 O.3     1  UNL1       -0.3751
     29 H          62.1345   87.7393   17.2299 H       1  UNL1        0.2110
     30 C          63.7025   85.1673   15.5546 C.3     1  UNL1        0.4230
     31 F          64.5411   84.3523   14.6150 F       1  UNL1       -0.1673
     32 F          62.7036   84.5376   14.6296 F       1  UNL1       -0.1673
     33 F          64.9412   85.6131   16.2735 F       1  UNL1       -0.1673
@<TRIPOS>BOND
     1     5     4    1
     2     5     6    1
     3     6     7    1
     4     7    11    1
     5    11    12    1
     6    12    15    1
     7    15    16   am
     8    15    17    2
     9    12    13    1
    10    13    14    1
    11     7     8    1
    12     8     9    1
    13     9    10    1
    14    10     1    1
    15     1     2    2
    16     1     3    2
    17     1    20    1
    18    20    21   ar
    19    21    22   ar
    20    22    23   ar
    21    23    26    1
    22    26    27    1
    23    26    28    1
    24    26    30    1
    25    30    31    1
    26    30    32    1
    27    30    33    1
    28    23    24   ar
    29    24    25   ar
    30    10     5    1
    31    25    20   ar
    32    14    12    1
    33    16    18    1
    34    16    19    1
    35    28    29    1
@<TRIPOS>MOLECULE
*****
 33 35 0 0 0
SMALL
GASTEIGER

@<TRIPOS>ATOM
      1 S          63.7006   87.0519   14.2766 S.O2    1  UNL1        0.0633
      2 O          63.1765   87.3619   12.9058 O.2     1  UNL1       -0.1528
      3 O          64.2247   86.7420   15.6474 O.2     1  UNL1       -0.1528
      4 C          63.0579   88.4370   16.8590 C.3     1  UNL1        0.0206
      5 C          63.7422   89.1878   15.7553 C.3     1  UNL1        0.0956
      6 C          64.1052   90.6311   15.9428 C.3     1  UNL1        0.0900
      7 N          64.7895   91.3818   14.8391 N.3     1  UNL1       -0.2698
      8 C          65.1108   90.6893   13.5480 C.3     1  UNL1        0.0915
      9 C          64.7479   89.2460   13.3605 C.3     1  UNL1        0.1131
     10 N          64.0636   88.4953   14.4642 N.3     1  UNL1       -0.1541
     11 C          65.1524   92.8252   15.0267 C.3     1  UNL1        0.0807
     12 C          66.5917   93.2465   14.9971 C.3     1  UNL1        0.0833
     13 C          68.0014   93.4809   15.4529 C.3     1  UNL1        0.0105
     14 C          67.0065   92.8547   16.3843 C.3     1  UNL1        0.0105
     15 C          66.6769   93.7847   13.5995 C.2     1  UNL1        0.2198
     16 N          67.2523   92.9377   12.5035 N.am    1  UNL1       -0.3288
     17 O          66.1867   95.1699   13.2981 O.2     1  UNL1       -0.2753
     18 H          67.5741   92.0285   12.7013 H       1  UNL1        0.1449
     19 H          67.3083   93.2909   11.5862 H       1  UNL1        0.1449
     20 C          63.3377   85.6087   14.0890 C.ar    1  UNL1        0.1222
     21 C          63.0983   85.0686   12.7103 C.ar    1  UNL1        0.0197
     22 C          62.7353   83.6252   12.5227 C.ar    1  UNL1       -0.0004
     23 C          62.6117   82.7221   13.7139 C.ar    1  UNL1        0.0099
     24 C          62.8511   83.2622   15.0927 C.ar    1  UNL1       -0.0004
     25 C          63.2140   84.7054   15.2803 C.ar    1  UNL1        0.0197
     26 C          62.2488   81.2788   13.5263 C.3     1  UNL1        0.1945
     27 C          61.8858   79.8355   13.3387 C.3     1  UNL1        0.0428
     28 O          61.2947   81.3688   14.6803 O.3     1  UNL1       -0.3751
     29 H          61.3103   82.2681   15.0434 H       1  UNL1        0.2110
     30 C          63.2029   81.1889   12.3724 C.3     1  UNL1        0.4230
     31 F          64.1569   81.0989   11.2184 F       1  UNL1       -0.1673
     32 F          62.3142   81.2098   11.1642 F       1  UNL1       -0.1673
     33 F          64.3568   81.1448   13.3299 F       1  UNL1       -0.1673
@<TRIPOS>BOND
     1     5     4    1
     2     5     6    1
     3     6     7    1
     4     7    11    1
     5    11    12    1
     6    12    15    1
     7    15    16   am
     8    15    17    2
     9    12    13    1
    10    13    14    1
    11     7     8    1
    12     8     9    1
    13     9    10    1
    14    10     1    1
    15     1     2    2
    16     1     3    2
    17     1    20    1
    18    20    21   ar
    19    21    22   ar
    20    22    23   ar
    21    23    26    1
    22    26    27    1
    23    26    28    1
    24    26    30    1
    25    30    31    1
    26    30    32    1
    27    30    33    1
    28    23    24   ar
    29    24    25   ar
    30    10     5    1
    31    25    20   ar
    32    14    12    1
    33    16    18    1
    34    16    19    1
    35    28    29    1
@<TRIPOS>MOLECULE
*****
 33 35 0 0 0
SMALL
GASTEIGER

@<TRIPOS>ATOM
      1 S          63.5080   86.8158   13.5319 S.O2    1  UNL1        0.0633
      2 O          63.1661   86.8738   12.0726 O.2     1  UNL1       -0.1528
      3 O          63.8500   86.7579   14.9912 O.2     1  UNL1       -0.1528
      4 C          62.4490   88.5909   11.3576 C.3     1  UNL1        0.0206
      5 C          63.3495   89.1565   12.4156 C.3     1  UNL1        0.0956
      6 C          63.7204   90.6096   12.3864 C.3     1  UNL1        0.0900
      7 N          64.6209   91.1752   13.4443 N.3     1  UNL1       -0.2698
      8 C          65.1504   90.2877   14.5315 C.3     1  UNL1        0.0915
      9 C          64.7794   88.8346   14.5607 C.3     1  UNL1        0.1131
     10 N          63.8790   88.2690   13.5027 N.3     1  UNL1       -0.1541
     11 C          64.9918   92.6283   13.4151 C.3     1  UNL1        0.0807
     12 C          66.1815   93.0829   12.6226 C.3     1  UNL1        0.0833
     13 C          66.9926   93.6242   11.4828 C.3     1  UNL1        0.0105
     14 C          65.5048   93.4906   11.3475 C.3     1  UNL1        0.0105
     15 C          67.2714   92.8330   13.6224 C.2     1  UNL1        0.2198
     16 N          68.4006   91.9052   13.2848 N.am    1  UNL1       -0.3288
     17 O          67.2322   93.5111   14.9598 O.2     1  UNL1       -0.2753
     18 H          68.4263   91.4601   12.4070 H       1  UNL1        0.1449
     19 H          69.1159   91.7412   13.9410 H       1  UNL1        0.1449
     20 C          63.1371   85.3628   13.5611 C.ar    1  UNL1        0.1222
     21 C          62.8824   84.6278   12.2786 C.ar    1  UNL1        0.0197
     22 C          62.5114   83.1746   12.3078 C.ar    1  UNL1       -0.0004
     23 C          62.3952   82.4565   13.6195 C.ar    1  UNL1        0.0099
     24 C          62.6499   83.1914   14.9021 C.ar    1  UNL1       -0.0004
     25 C          63.0209   84.6445   14.8729 C.ar    1  UNL1        0.0197
     26 C          62.0243   81.0034   13.6487 C.3     1  UNL1        0.1945
     27 C          61.6534   79.5502   13.6779 C.3     1  UNL1        0.0428
     28 O          61.0130   81.2831   14.7206 O.3     1  UNL1       -0.3751
     29 H          61.0211   82.2293   14.9338 H       1  UNL1        0.2110
     30 C          63.0356   80.7237   12.5768 C.3     1  UNL1        0.4230
     31 F          64.0469   80.4440   11.5049 F       1  UNL1       -0.1673
     32 F          62.2179   80.6243   11.3233 F       1  UNL1       -0.1673
     33 F          64.1307   80.7564   13.6015 F       1  UNL1       -0.1673
@<TRIPOS>BOND
     1     5     4    1
     2     5     6    1
     3     6     7    1
     4     7    11    1
     5    11    12    1
     6    12    15    1
     7    15    16   am
     8    15    17    2
     9    12    13    1
    10    13    14    1
    11     7     8    1
    12     8     9    1
    13     9    10    1
    14    10     1    1
    15     1     2    2
    16     1     3    2
    17     1    20    1
    18    20    21   ar
    19    21    22   ar
    20    22    23   ar
    21    23    26    1
    22    26    27    1
    23    26    28    1
    24    26    30    1
    25    30    31    1
    26    30    32    1
    27    30    33    1
    28    23    24   ar
    29    24    25   ar
    30    10     5    1
    31    25    20   ar
    32    14    12    1
    33    16    18    1
    34    16    19    1
    35    28    29    1
@<TRIPOS>MOLECULE
*****
 33 35 0 0 0
SMALL
GASTEIGER

@<TRIPOS>ATOM
      1 S          63.6343   86.4343   13.2508 S.O2    1  UNL1        0.0633
      2 O          64.5776   86.0606   14.3555 O.2     1  UNL1       -0.1528
      3 O          62.6910   86.8081   12.1460 O.2     1  UNL1       -0.1528
      4 C          62.6933   88.5177   11.3080 C.3     1  UNL1        0.0206
      5 C          63.4125   88.9287   12.5586 C.3     1  UNL1        0.0956
      6 C          63.6612   90.3813   12.8378 C.3     1  UNL1        0.0900
      7 N          64.3803   90.7923   14.0883 N.3     1  UNL1       -0.2698
      8 C          64.8508   89.7507   15.0597 C.3     1  UNL1        0.0915
      9 C          64.6021   88.2981   14.7805 C.3     1  UNL1        0.1131
     10 N          63.8830   87.8871   13.5299 N.3     1  UNL1       -0.1541
     11 C          64.6290   92.2450   14.3675 C.3     1  UNL1        0.0807
     12 C          66.0312   92.7430   14.5568 C.3     1  UNL1        0.0833
     13 C          67.2818   93.2062   15.2434 C.3     1  UNL1        0.0105
     14 C          66.0819   92.8156   16.0542 C.3     1  UNL1        0.0105
     15 C          66.4675   92.8434   13.1252 C.2     1  UNL1        0.2198
     16 N          65.5187   93.3643   12.0867 N.am    1  UNL1       -0.3288
     17 O          67.8527   92.4228   12.7320 O.2     1  UNL1       -0.2753
     18 H          64.6096   93.6403   12.3448 H       1  UNL1        0.1449
     19 H          65.8051   93.4302   11.1471 H       1  UNL1        0.1449
     20 C          63.3857   84.9817   12.9717 C.ar    1  UNL1        0.1222
     21 C          62.7782   84.5621   11.6659 C.ar    1  UNL1        0.0197
     22 C          62.5296   83.1094   11.3868 C.ar    1  UNL1       -0.0004
     23 C          62.8884   82.0763   12.4135 C.ar    1  UNL1        0.0099
     24 C          63.4958   82.4959   13.7192 C.ar    1  UNL1       -0.0004
     25 C          63.7445   83.9486   13.9983 C.ar    1  UNL1        0.0197
     26 C          62.6398   80.6237   12.1344 C.3     1  UNL1        0.1945
     27 C          62.3911   79.1709   11.8553 C.3     1  UNL1        0.0428
     28 O          63.2818   80.7727   10.7870 O.3     1  UNL1       -0.3751
     29 H          63.5718   81.6905   10.6667 H       1  UNL1        0.2110
     30 C          61.9977   80.4747   13.4818 C.3     1  UNL1        0.4230
     31 F          61.3556   80.3257   14.8292 F       1  UNL1       -0.1673
     32 F          60.7148   81.2422   13.3594 F       1  UNL1       -0.1673
     33 F          63.1599   79.6464   13.9440 F       1  UNL1       -0.1673
@<TRIPOS>BOND
     1     5     4    1
     2     5     6    1
     3     6     7    1
     4     7    11    1
     5    11    12    1
     6    12    15    1
     7    15    16   am
     8    15    17    2
     9    12    13    1
    10    13    14    1
    11     7     8    1
    12     8     9    1
    13     9    10    1
    14    10     1    1
    15     1     2    2
    16     1     3    2
    17     1    20    1
    18    20    21   ar
    19    21    22   ar
    20    22    23   ar
    21    23    26    1
    22    26    27    1
    23    26    28    1
    24    26    30    1
    25    30    31    1
    26    30    32    1
    27    30    33    1
    28    23    24   ar
    29    24    25   ar
    30    10     5    1
    31    25    20   ar
    32    14    12    1
    33    16    18    1
    34    16    19    1
    35    28    29    1
@<TRIPOS>MOLECULE
*****
 33 35 0 0 0
SMALL
GASTEIGER

@<TRIPOS>ATOM
      1 S          63.2258   90.1467   12.0338 S.O2    1  UNL1        0.0633
      2 O          63.7304   88.8831   12.6652 O.2     1  UNL1       -0.1528
      3 O          62.7212   91.4103   11.4024 O.2     1  UNL1       -0.1528
      4 C          65.0780   92.2135   10.8946 C.3     1  UNL1        0.0206
      5 C          65.0285   91.9859   12.3764 C.3     1  UNL1        0.0956
      6 C          65.9052   92.7917   13.2887 C.3     1  UNL1        0.0900
      7 N          65.8557   92.5641   14.7705 N.3     1  UNL1       -0.2698
      8 C          64.9297   91.5307   15.3401 C.3     1  UNL1        0.0915
      9 C          64.0531   90.7249   14.4278 C.3     1  UNL1        0.1131
     10 N          64.1025   90.9525   12.9460 N.3     1  UNL1       -0.1541
     11 C          66.7324   93.3700   15.6827 C.3     1  UNL1        0.0807
     12 C          68.2242   93.3053   15.5395 C.3     1  UNL1        0.0833
     13 C          69.6704   93.6806   15.6716 C.3     1  UNL1        0.0105
     14 C          68.6114   94.5495   16.2824 C.3     1  UNL1        0.0105
     15 C          68.3551   92.0386   14.7468 C.2     1  UNL1        0.2198
     16 N          67.8690   90.7409   15.3210 N.am    1  UNL1       -0.3288
     17 O          68.9721   92.0696   13.3799 O.2     1  UNL1       -0.2753
     18 H          67.4640   90.7206   16.2181 H       1  UNL1        0.1449
     19 H          67.9549   89.9095   14.8007 H       1  UNL1        0.1449
     20 C          62.3492   89.3408   11.1216 C.ar    1  UNL1        0.1222
     21 C          62.1922   87.8655   11.3426 C.ar    1  UNL1        0.0197
     22 C          61.3155   87.0597   10.4303 C.ar    1  UNL1       -0.0004
     23 C          60.5959   87.7291    9.2972 C.ar    1  UNL1        0.0099
     24 C          60.7529   89.2044    9.0763 C.ar    1  UNL1       -0.0004
     25 C          61.6295   90.0103    9.9885 C.ar    1  UNL1        0.0197
     26 C          59.7192   86.9233    8.3851 C.3     1  UNL1        0.1945
     27 C          58.8426   86.1173    7.4729 C.3     1  UNL1        0.0428
     28 O          58.5218   87.6959    8.8533 O.3     1  UNL1       -0.3751
     29 H          58.7982   88.3537    9.5103 H       1  UNL1        0.2110
     30 C          60.9166   86.1506    7.9169 C.3     1  UNL1        0.4230
     31 F          62.1141   85.3780    7.4487 F       1  UNL1       -0.1673
     32 F          62.0824   86.9838    8.3606 F       1  UNL1       -0.1673
     33 F          60.0138   85.0992    7.3428 F       1  UNL1       -0.1673
@<TRIPOS>BOND
     1     5     4    1
     2     5     6    1
     3     6     7    1
     4     7    11    1
     5    11    12    1
     6    12    15    1
     7    15    16   am
     8    15    17    2
     9    12    13    1
    10    13    14    1
    11     7     8    1
    12     8     9    1
    13     9    10    1
    14    10     1    1
    15     1     2    2
    16     1     3    2
    17     1    20    1
    18    20    21   ar
    19    21    22   ar
    20    22    23   ar
    21    23    26    1
    22    26    27    1
    23    26    28    1
    24    26    30    1
    25    30    31    1
    26    30    32    1
    27    30    33    1
    28    23    24   ar
    29    24    25   ar
    30    10     5    1
    31    25    20   ar
    32    14    12    1
    33    16    18    1
    34    16    19    1
    35    28    29    1
@<TRIPOS>MOLECULE
*****
 33 35 0 0 0
SMALL
GASTEIGER

@<TRIPOS>ATOM
      1 S          63.7421   90.7801   12.4381 S.O2    1  UNL1        0.0633
      2 O          64.3394   91.2224   11.1352 O.2     1  UNL1       -0.1528
      3 O          63.1448   90.3378   13.7410 O.2     1  UNL1       -0.1528
      4 C          63.5260   87.7982   12.6872 C.3     1  UNL1        0.0206
      5 C          62.5607   88.5503   11.8197 C.3     1  UNL1        0.0956
      6 C          61.4874   87.8114   11.0768 C.3     1  UNL1        0.0900
      7 N          60.5221   88.5635   10.2092 N.3     1  UNL1       -0.2698
      8 C          60.6301   90.0543   10.0846 C.3     1  UNL1        0.0915
      9 C          61.7034   90.7932   10.8276 C.3     1  UNL1        0.1131
     10 N          62.6687   90.0411   11.6951 N.3     1  UNL1       -0.1541
     11 C          59.4487   87.8245    9.4663 C.3     1  UNL1        0.0807
     12 C          59.5882   87.5810    7.9928 C.3     1  UNL1        0.0833
     13 C          59.5036   87.8078    6.5124 C.3     1  UNL1        0.0105
     14 C          58.9916   88.8505    7.4613 C.3     1  UNL1        0.0105
     15 C          60.2332   86.2269    8.0124 C.2     1  UNL1        0.2198
     16 N          61.2171   85.8805    9.0902 N.am    1  UNL1       -0.3288
     17 O          59.8942   85.2193    6.9542 O.2     1  UNL1       -0.2753
     18 H          61.4396   86.5418    9.7848 H       1  UNL1        0.1449
     19 H          61.6405   84.9917    9.1031 H       1  UNL1        0.1449
     20 C          64.8155   91.5190   13.1810 C.ar    1  UNL1        0.1222
     21 C          65.1898   91.0995   14.5716 C.ar    1  UNL1        0.0197
     22 C          66.2633   91.8385   15.3145 C.ar    1  UNL1       -0.0004
     23 C          66.9622   92.9968   14.6667 C.ar    1  UNL1        0.0099
     24 C          66.5878   93.4163   13.2761 C.ar    1  UNL1       -0.0004
     25 C          65.5145   92.6774   12.5332 C.ar    1  UNL1        0.0197
     26 C          68.0356   93.7357   15.4096 C.3     1  UNL1        0.1945
     27 C          69.1090   94.4746   16.1525 C.3     1  UNL1        0.0428
     28 O          67.3742   95.0384   15.0696 O.3     1  UNL1       -0.3751
     29 H          66.5772   94.8686   14.5434 H       1  UNL1        0.2110
     30 C          68.6970   92.4331   15.7496 C.3     1  UNL1        0.4230
     31 F          69.3584   91.1304   16.0897 F       1  UNL1       -0.1673
     32 F          68.1756   92.1076   17.1179 F       1  UNL1       -0.1673
     33 F          69.3993   92.4437   14.4242 F       1  UNL1       -0.1673
@<TRIPOS>BOND
     1     5     4    1
     2     5     6    1
     3     6     7    1
     4     7    11    1
     5    11    12    1
     6    12    15    1
     7    15    16   am
     8    15    17    2
     9    12    13    1
    10    13    14    1
    11     7     8    1
    12     8     9    1
    13     9    10    1
    14    10     1    1
    15     1     2    2
    16     1     3    2
    17     1    20    1
    18    20    21   ar
    19    21    22   ar
    20    22    23   ar
    21    23    26    1
    22    26    27    1
    23    26    28    1
    24    26    30    1
    25    30    31    1
    26    30    32    1
    27    30    33    1
    28    23    24   ar
    29    24    25   ar
    30    10     5    1
    31    25    20   ar
    32    14    12    1
    33    16    18    1
    34    16    19    1
    35    28    29    1
@<TRIPOS>MOLECULE
*****
 33 35 0 0 0
SMALL
GASTEIGER

@<TRIPOS>ATOM
      1 S          61.4545   86.8910   10.1190 S.O2    1  UNL1        0.0633
      2 O          60.4137   87.2735   11.1291 O.2     1  UNL1       -0.1528
      3 O          62.4954   86.5086    9.1090 O.2     1  UNL1       -0.1528
      4 C          60.1986   85.6149    7.7119 C.3     1  UNL1        0.0206
      5 C          60.1413   87.1035    7.8873 C.3     1  UNL1        0.0956
      6 C          59.4561   87.9541    6.8593 C.3     1  UNL1        0.0900
      7 N          59.3989   89.4427    7.0347 N.3     1  UNL1       -0.2698
      8 C          60.0268   90.0807    8.2382 C.3     1  UNL1        0.0915
      9 C          60.7120   89.2302    9.2663 C.3     1  UNL1        0.1131
     10 N          60.7693   87.7416    9.0909 N.3     1  UNL1       -0.1541
     11 C          58.7136   90.2933    6.0065 C.3     1  UNL1        0.0807
     12 C          59.5266   91.1036    5.0409 C.3     1  UNL1        0.0833
     13 C          60.7191   91.6445    4.3093 C.3     1  UNL1        0.0105
     14 C          60.9018   90.6095    5.3794 C.3     1  UNL1        0.0105
     15 C          58.4337   91.8792    4.3670 C.2     1  UNL1        0.2198
     16 N          58.6690   92.4877    3.0164 N.am    1  UNL1       -0.3288
     17 O          57.1056   92.0462    5.0439 O.2     1  UNL1       -0.2753
     18 H          59.5407   92.3780    2.5721 H       1  UNL1        0.1449
     19 H          57.9517   92.9967    2.5741 H       1  UNL1        0.1449
     20 C          62.1397   86.0405   11.1472 C.ar    1  UNL1        0.1222
     21 C          62.8220   86.6832   12.3183 C.ar    1  UNL1        0.0197
     22 C          63.5072   85.8326   13.3465 C.ar    1  UNL1       -0.0004
     23 C          63.5101   84.3394   13.2035 C.ar    1  UNL1        0.0099
     24 C          62.8278   83.6968   12.0324 C.ar    1  UNL1       -0.0004
     25 C          62.1426   84.5473   11.0043 C.ar    1  UNL1        0.0197
     26 C          64.1953   83.4889   14.2317 C.3     1  UNL1        0.1945
     27 C          64.8804   82.6384   15.2599 C.3     1  UNL1        0.0428
     28 O          65.4638   84.2626   14.0262 O.3     1  UNL1       -0.3751
     29 H          65.3195   84.9479   13.3551 H       1  UNL1        0.2110
     30 C          62.9267   82.7153   14.4371 C.3     1  UNL1        0.4230
     31 F          61.6581   81.9417   14.6426 F       1  UNL1       -0.1673
     32 F          61.9714   83.7268   14.9976 F       1  UNL1       -0.1673
     33 F          63.5949   81.4798   13.9106 F       1  UNL1       -0.1673
@<TRIPOS>BOND
     1     5     4    1
     2     5     6    1
     3     6     7    1
     4     7    11    1
     5    11    12    1
     6    12    15    1
     7    15    16   am
     8    15    17    2
     9    12    13    1
    10    13    14    1
    11     7     8    1
    12     8     9    1
    13     9    10    1
    14    10     1    1
    15     1     2    2
    16     1     3    2
    17     1    20    1
    18    20    21   ar
    19    21    22   ar
    20    22    23   ar
    21    23    26    1
    22    26    27    1
    23    26    28    1
    24    26    30    1
    25    30    31    1
    26    30    32    1
    27    30    33    1
    28    23    24   ar
    29    24    25   ar
    30    10     5    1
    31    25    20   ar
    32    14    12    1
    33    16    18    1
    34    16    19    1
    35    28    29    1
