@<TRIPOS>MOLECULE
*****
 20 22 0 0 0
SMALL
GASTEIGER

@<TRIPOS>ATOM
      1 N          61.8257   88.4620   10.8777 N.ar    1  UNL1       -0.2449
      2 C          62.8221   88.8371   11.9343 C.ar    1  UNL1        0.0970
      3 C          63.1611   90.2877   11.7578 C.ar    1  UNL1        0.0397
      4 C          62.3742   90.8090   10.5920 C.ar    1  UNL1        0.1216
      5 N          61.5488   89.6808   10.0481 N.ar    1  UNL1       -0.1673
      6 C          64.1189   91.0780   12.5992 C.ar    1  UNL1        0.0061
      7 C          64.2559   90.7776   14.0623 C.ar    1  UNL1        0.0208
      8 C          65.2137   91.5680   14.9037 C.ar    1  UNL1        0.0989
      9 N          66.0343   92.6588   14.2821 N.ar    1  UNL1       -0.2423
     10 C          65.8973   92.9592   12.8188 C.ar    1  UNL1        0.0989
     11 C          64.9395   92.1689   11.9774 C.ar    1  UNL1        0.0208
     12 C          61.2136   87.1063   10.6845 C.3     1  UNL1        0.1547
     13 CL         62.0276   84.1546    5.5246 Cl      1  UNL1       -0.0822
     14 C          61.8241   84.8925    6.8146 C.ar    1  UNL1        0.0585
     15 C          62.9148   84.9185    7.8439 C.ar    1  UNL1        0.0112
     16 C          62.7113   85.6564    9.1339 C.ar    1  UNL1       -0.0006
     17 C          61.4171   86.3684    9.3946 C.ar    1  UNL1        0.0127
     18 C          60.3264   86.3424    8.3652 C.ar    1  UNL1        0.0564
     19 CL         59.0320   87.0544    8.6258 Cl      1  UNL1       -0.0825
     20 C          60.5299   85.6045    7.0752 C.ar    1  UNL1        0.0225
@<TRIPOS>BOND
     1    13    14    1
     2    14    15   ar
     3    15    16   ar
     4    16    17   ar
     5    17    12    1
     6    12     1    1
     7     1     2   ar
     8     2     3   ar
     9     3     6    1
    10     6     7   ar
    11     7     8   ar
    12     8     9   ar
    13     9    10   ar
    14    10    11   ar
    15     3     4   ar
    16     4     5   ar
    17    17    18   ar
    18    18    19    1
    19    18    20   ar
    20    20    14   ar
    21     5     1   ar
    22    11     6   ar
@<TRIPOS>MOLECULE
*****
 20 22 0 0 0
SMALL
GASTEIGER

@<TRIPOS>ATOM
      1 N          63.2315   86.4437   12.6302 N.ar    1  UNL1       -0.2449
      2 C          62.3136   86.1330   11.4852 C.ar    1  UNL1        0.0970
      3 C          61.9182   87.4296   10.8429 C.ar    1  UNL1        0.0397
      4 C          62.5917   88.5418   11.5910 C.ar    1  UNL1        0.1216
      5 N          63.4033   87.9325   12.6956 N.ar    1  UNL1       -0.1673
      6 C          61.0090   87.5866    9.6602 C.ar    1  UNL1        0.0061
      7 C          60.6442   88.9568    9.1713 C.ar    1  UNL1        0.0208
      8 C          59.7350   89.1138    7.9887 C.ar    1  UNL1        0.0989
      9 N          59.1906   87.9004    7.2949 N.ar    1  UNL1       -0.2423
     10 C          59.5555   86.5301    7.7838 C.ar    1  UNL1        0.0989
     11 C          60.4647   86.3731    8.9665 C.ar    1  UNL1        0.0208
     12 C          63.8660   85.4418   13.5485 C.3     1  UNL1        0.1547
     13 CL         62.2418   79.6722   13.2761 Cl      1  UNL1       -0.0822
     14 C          62.6479   81.1146   13.3442 C.ar    1  UNL1        0.0585
     15 C          63.6177   81.6688   12.3431 C.ar    1  UNL1        0.0112
     16 C          64.0237   83.1112   12.4112 C.ar    1  UNL1       -0.0006
     17 C          63.4600   83.9994   13.4804 C.ar    1  UNL1        0.0127
     18 C          62.4901   83.4452   14.4815 C.ar    1  UNL1        0.0564
     19 CL         61.9263   84.3334   15.5508 Cl      1  UNL1       -0.0825
     20 C          62.0841   82.0028   14.4134 C.ar    1  UNL1        0.0225
@<TRIPOS>BOND
     1    13    14    1
     2    14    15   ar
     3    15    16   ar
     4    16    17   ar
     5    17    12    1
     6    12     1    1
     7     1     2   ar
     8     2     3   ar
     9     3     6    1
    10     6     7   ar
    11     7     8   ar
    12     8     9   ar
    13     9    10   ar
    14    10    11   ar
    15     3     4   ar
    16     4     5   ar
    17    17    18   ar
    18    18    19    1
    19    18    20   ar
    20    20    14   ar
    21     5     1   ar
    22    11     6   ar
@<TRIPOS>MOLECULE
*****
 20 22 0 0 0
SMALL
GASTEIGER

@<TRIPOS>ATOM
      1 N          63.1953   86.2422   12.6215 N.ar    1  UNL1       -0.2449
      2 C          62.2793   85.9725   11.4647 C.ar    1  UNL1        0.0970
      3 C          61.9066   87.2898   10.8515 C.ar    1  UNL1        0.0397
      4 C          62.5924   88.3737   11.6295 C.ar    1  UNL1        0.1216
      5 N          63.3888   87.7262   12.7233 N.ar    1  UNL1       -0.1673
      6 C          61.0064   87.4884    9.6683 C.ar    1  UNL1        0.0061
      7 C          60.4660   86.3003    8.9293 C.ar    1  UNL1        0.0208
      8 C          59.5658   86.4989    7.7461 C.ar    1  UNL1        0.0989
      9 N          59.2059   87.8856    7.3018 N.ar    1  UNL1       -0.2423
     10 C          59.7464   89.0738    8.0408 C.ar    1  UNL1        0.0989
     11 C          60.6466   88.8752    9.2241 C.ar    1  UNL1        0.0208
     12 C          63.8098   85.2093   13.5189 C.3     1  UNL1        0.1547
     13 CL         61.9212   79.5194   13.2779 Cl      1  UNL1       -0.0822
     14 C          62.3934   80.9419   13.3381 C.ar    1  UNL1        0.0585
     15 C          61.9292   81.8399   14.4463 C.ar    1  UNL1        0.0112
     16 C          62.4013   83.2623   14.5066 C.ar    1  UNL1       -0.0006
     17 C          63.3377   83.7868   13.4587 C.ar    1  UNL1        0.0127
     18 C          63.8018   82.8888   12.3505 C.ar    1  UNL1        0.0564
     19 CL         64.7382   83.4133   11.3025 Cl      1  UNL1       -0.0825
     20 C          63.3297   81.4663   12.2902 C.ar    1  UNL1        0.0225
@<TRIPOS>BOND
     1    13    14    1
     2    14    15   ar
     3    15    16   ar
     4    16    17   ar
     5    17    12    1
     6    12     1    1
     7     1     2   ar
     8     2     3   ar
     9     3     6    1
    10     6     7   ar
    11     7     8   ar
    12     8     9   ar
    13     9    10   ar
    14    10    11   ar
    15     3     4   ar
    16     4     5   ar
    17    17    18   ar
    18    18    19    1
    19    18    20   ar
    20    20    14   ar
    21     5     1   ar
    22    11     6   ar
@<TRIPOS>MOLECULE
*****
 20 22 0 0 0
SMALL
GASTEIGER

@<TRIPOS>ATOM
      1 N          61.7778   88.2056   10.5710 N.ar    1  UNL1       -0.2449
      2 C          62.7824   88.5567   11.6282 C.ar    1  UNL1        0.0970
      3 C          62.9542   90.0470   11.6276 C.ar    1  UNL1        0.0397
      4 C          62.0558   90.6167   10.5701 C.ar    1  UNL1        0.1216
      5 N          61.3288   89.4787    9.9171 N.ar    1  UNL1       -0.1673
      6 C          63.8646   90.8299   12.5267 C.ar    1  UNL1        0.0061
      7 C          63.9361   90.5042   13.9891 C.ar    1  UNL1        0.0208
      8 C          64.8465   91.2871   14.8881 C.ar    1  UNL1        0.0989
      9 N          65.6852   92.3956   14.3248 N.ar    1  UNL1       -0.2423
     10 C          65.6137   92.7213   12.8623 C.ar    1  UNL1        0.0989
     11 C          64.7033   91.9384   11.9632 C.ar    1  UNL1        0.0208
     12 C          61.3052   86.8239   10.2280 C.3     1  UNL1        0.1547
     13 CL         64.5960   82.0547   11.7856 Cl      1  UNL1       -0.0822
     14 C          63.7733   83.2470   11.3962 C.ar    1  UNL1        0.0585
     15 C          62.9860   83.9871   12.4366 C.ar    1  UNL1        0.0112
     16 C          62.1633   85.1794   12.0472 C.ar    1  UNL1       -0.0006
     17 C          62.1279   85.6316   10.6174 C.ar    1  UNL1        0.0127
     18 C          62.9152   84.8915    9.5771 C.ar    1  UNL1        0.0564
     19 CL         62.8799   85.3437    8.1473 Cl      1  UNL1       -0.0825
     20 C          63.7379   83.6992    9.9665 C.ar    1  UNL1        0.0225
@<TRIPOS>BOND
     1    13    14    1
     2    14    15   ar
     3    15    16   ar
     4    16    17   ar
     5    17    12    1
     6    12     1    1
     7     1     2   ar
     8     2     3   ar
     9     3     6    1
    10     6     7   ar
    11     7     8   ar
    12     8     9   ar
    13     9    10   ar
    14    10    11   ar
    15     3     4   ar
    16     4     5   ar
    17    17    18   ar
    18    18    19    1
    19    18    20   ar
    20    20    14   ar
    21     5     1   ar
    22    11     6   ar
@<TRIPOS>MOLECULE
*****
 20 22 0 0 0
SMALL
GASTEIGER

@<TRIPOS>ATOM
      1 N          61.8350   89.2942   10.9935 N.ar    1  UNL1       -0.2449
      2 C          62.6917   90.4581   10.5915 C.ar    1  UNL1        0.0970
      3 C          63.6205   90.7647   11.7288 C.ar    1  UNL1        0.0397
      4 C          63.3378   89.7904   12.8337 C.ar    1  UNL1        0.1216
      5 N          62.2344   88.8816   12.3793 N.ar    1  UNL1       -0.1673
      6 C          64.6510   91.8544   11.7564 C.ar    1  UNL1        0.0061
      7 C          64.9514   92.6342   10.5108 C.ar    1  UNL1        0.0208
      8 C          65.9818   93.7238   10.5383 C.ar    1  UNL1        0.0989
      9 N          66.7119   94.0337   11.8114 N.ar    1  UNL1       -0.2423
     10 C          66.4115   93.2538   13.0571 C.ar    1  UNL1        0.0989
     11 C          65.3810   92.1642   13.0295 C.ar    1  UNL1        0.0208
     12 C          60.7666   88.6552   10.1568 C.3     1  UNL1        0.1547
     13 CL         62.1595   84.1640    6.4301 Cl      1  UNL1       -0.0822
     14 C          61.8113   85.2868    7.3618 C.ar    1  UNL1        0.0585
     15 C          62.7640   85.6798    8.4517 C.ar    1  UNL1        0.0112
     16 C          62.4157   86.8027    9.3833 C.ar    1  UNL1       -0.0006
     17 C          61.1148   87.5324    9.2251 C.ar    1  UNL1        0.0127
     18 C          60.1622   87.1394    8.1352 C.ar    1  UNL1        0.0564
     19 CL         58.8612   87.8691    7.9770 Cl      1  UNL1       -0.0825
     20 C          60.5104   86.0165    7.2036 C.ar    1  UNL1        0.0225
@<TRIPOS>BOND
     1    13    14    1
     2    14    15   ar
     3    15    16   ar
     4    16    17   ar
     5    17    12    1
     6    12     1    1
     7     1     2   ar
     8     2     3   ar
     9     3     6    1
    10     6     7   ar
    11     7     8   ar
    12     8     9   ar
    13     9    10   ar
    14    10    11   ar
    15     3     4   ar
    16     4     5   ar
    17    17    18   ar
    18    18    19    1
    19    18    20   ar
    20    20    14   ar
    21     5     1   ar
    22    11     6   ar
@<TRIPOS>MOLECULE
*****
 20 22 0 0 0
SMALL
GASTEIGER

@<TRIPOS>ATOM
      1 N          63.1428   91.0332   12.1329 N.ar    1  UNL1       -0.2449
      2 C          63.9172   91.6451   11.0034 C.ar    1  UNL1        0.0970
      3 C          65.1884   92.2098   11.5652 C.ar    1  UNL1        0.0397
      4 C          65.1994   91.9468   13.0420 C.ar    1  UNL1        0.1216
      5 N          63.9352   91.2197   13.3929 N.ar    1  UNL1       -0.1673
      6 C          66.2601   92.9137   10.7870 C.ar    1  UNL1        0.0061
      7 C          66.1672   94.3920   10.5506 C.ar    1  UNL1        0.0208
      8 C          67.2389   95.0960    9.7724 C.ar    1  UNL1        0.0989
      9 N          68.4037   94.3217    9.2305 N.ar    1  UNL1       -0.2423
     10 C          68.4967   92.8433    9.4668 C.ar    1  UNL1        0.0989
     11 C          67.4249   92.1393   10.2451 C.ar    1  UNL1        0.0208
     12 C          61.8099   90.3541   12.0220 C.3     1  UNL1        0.1547
     13 CL         60.9759   86.0303    7.9466 Cl      1  UNL1       -0.0822
     14 C          61.1844   87.1112    8.9654 C.ar    1  UNL1        0.0585
     15 C          60.4831   88.4287    8.8154 C.ar    1  UNL1        0.0112
     16 C          60.6916   89.5096    9.8343 C.ar    1  UNL1       -0.0006
     17 C          61.6014   89.2731   11.0031 C.ar    1  UNL1        0.0127
     18 C          62.3027   87.9557   11.1532 C.ar    1  UNL1        0.0564
     19 CL         63.2125   87.7191   12.3221 Cl      1  UNL1       -0.0825
     20 C          62.0942   86.8748   10.1343 C.ar    1  UNL1        0.0225
@<TRIPOS>BOND
     1    13    14    1
     2    14    15   ar
     3    15    16   ar
     4    16    17   ar
     5    17    12    1
     6    12     1    1
     7     1     2   ar
     8     2     3   ar
     9     3     6    1
    10     6     7   ar
    11     7     8   ar
    12     8     9   ar
    13     9    10   ar
    14    10    11   ar
    15     3     4   ar
    16     4     5   ar
    17    17    18   ar
    18    18    19    1
    19    18    20   ar
    20    20    14   ar
    21     5     1   ar
    22    11     6   ar
@<TRIPOS>MOLECULE
*****
 20 22 0 0 0
SMALL
GASTEIGER

@<TRIPOS>ATOM
      1 N          63.3967   90.9003   12.6143 N.ar    1  UNL1       -0.2449
      2 C          63.9818   91.5188   11.3794 C.ar    1  UNL1        0.0970
      3 C          65.2327   92.2469   11.7736 C.ar    1  UNL1        0.0397
      4 C          65.4207   92.0783   13.2523 C.ar    1  UNL1        0.1216
      5 N          64.2860   91.2461   13.7718 N.ar    1  UNL1       -0.1673
      6 C          66.1369   93.0095   10.8512 C.ar    1  UNL1        0.0061
      7 C          67.3086   92.3240   10.2134 C.ar    1  UNL1        0.0208
      8 C          68.2127   93.0867    9.2910 C.ar    1  UNL1        0.0989
      9 N          67.9451   94.5349    9.0064 N.ar    1  UNL1       -0.2423
     10 C          66.7733   95.2204    9.6443 C.ar    1  UNL1        0.0989
     11 C          65.8691   94.4577   10.5667 C.ar    1  UNL1        0.0208
     12 C          62.1426   90.0801   12.6803 C.3     1  UNL1        0.1547
     13 CL         60.5783   86.6126    8.0403 Cl      1  UNL1       -0.0822
     14 C          60.9693   87.4795    9.2003 C.ar    1  UNL1        0.0585
     15 C          62.1964   87.1544    9.9994 C.ar    1  UNL1        0.0112
     16 C          62.5874   88.0212   11.1594 C.ar    1  UNL1       -0.0006
     17 C          61.7515   89.2132   11.5203 C.ar    1  UNL1        0.0127
     18 C          60.5245   89.5384   10.7211 C.ar    1  UNL1        0.0564
     19 CL         59.6885   90.7304   11.0820 Cl      1  UNL1       -0.0825
     20 C          60.1334   88.6715    9.5611 C.ar    1  UNL1        0.0225
@<TRIPOS>BOND
     1    13    14    1
     2    14    15   ar
     3    15    16   ar
     4    16    17   ar
     5    17    12    1
     6    12     1    1
     7     1     2   ar
     8     2     3   ar
     9     3     6    1
    10     6     7   ar
    11     7     8   ar
    12     8     9   ar
    13     9    10   ar
    14    10    11   ar
    15     3     4   ar
    16     4     5   ar
    17    17    18   ar
    18    18    19    1
    19    18    20   ar
    20    20    14   ar
    21     5     1   ar
    22    11     6   ar
@<TRIPOS>MOLECULE
*****
 20 22 0 0 0
SMALL
GASTEIGER

@<TRIPOS>ATOM
      1 N          63.7292   90.0317   12.3945 N.ar    1  UNL1       -0.2449
      2 C          62.9054   88.9133   11.8283 C.ar    1  UNL1        0.0970
      3 C          62.3497   89.3677   10.5111 C.ar    1  UNL1        0.0397
      4 C          62.8301   90.7670   10.2634 C.ar    1  UNL1        0.1216
      5 N          63.6827   91.1773   11.4273 N.ar    1  UNL1       -0.1673
      6 C          61.4684   88.5641    9.6015 C.ar    1  UNL1        0.0061
      7 C          61.7121   87.0944    9.4273 C.ar    1  UNL1        0.0208
      8 C          60.8308   86.2907    8.5177 C.ar    1  UNL1        0.0989
      9 N          59.7059   86.9567    7.7823 N.ar    1  UNL1       -0.2423
     10 C          59.4622   88.4265    7.9566 C.ar    1  UNL1        0.0989
     11 C          60.3435   89.2302    8.8662 C.ar    1  UNL1        0.0208
     12 C          64.4695   90.0085   13.6989 C.3     1  UNL1        0.1547
     13 CL         62.8029   86.2024   18.0273 Cl      1  UNL1       -0.0822
     14 C          63.2195   87.1539   16.9452 C.ar    1  UNL1        0.0585
     15 C          63.8216   86.6288   15.6757 C.ar    1  UNL1        0.0112
     16 C          64.2383   87.5804   14.5936 C.ar    1  UNL1       -0.0006
     17 C          64.0529   89.0570   14.7810 C.ar    1  UNL1        0.0127
     18 C          63.4508   89.5820   16.0505 C.ar    1  UNL1        0.0564
     19 CL         63.2654   91.0587   16.2380 Cl      1  UNL1       -0.0825
     20 C          63.0341   88.6305   17.1326 C.ar    1  UNL1        0.0225
@<TRIPOS>BOND
     1    13    14    1
     2    14    15   ar
     3    15    16   ar
     4    16    17   ar
     5    17    12    1
     6    12     1    1
     7     1     2   ar
     8     2     3   ar
     9     3     6    1
    10     6     7   ar
    11     7     8   ar
    12     8     9   ar
    13     9    10   ar
    14    10    11   ar
    15     3     4   ar
    16     4     5   ar
    17    17    18   ar
    18    18    19    1
    19    18    20   ar
    20    20    14   ar
    21     5     1   ar
    22    11     6   ar
@<TRIPOS>MOLECULE
*****
 20 22 0 0 0
SMALL
GASTEIGER

@<TRIPOS>ATOM
      1 N          61.8314   88.4509   10.8026 N.ar    1  UNL1       -0.2449
      2 C          62.4283   87.2963   11.5515 C.ar    1  UNL1        0.0970
      3 C          62.3519   86.0838   10.6715 C.ar    1  UNL1        0.0397
      4 C          61.7078   86.4891    9.3788 C.ar    1  UNL1        0.1216
      5 N          61.3862   87.9519    9.4598 N.ar    1  UNL1       -0.1673
      6 C          62.8348   84.7078   11.0227 C.ar    1  UNL1        0.0061
      7 C          63.5657   83.8864   10.0024 C.ar    1  UNL1        0.0208
      8 C          64.0486   82.5104   10.3535 C.ar    1  UNL1        0.0989
      9 N          63.8007   81.9558   11.7249 N.ar    1  UNL1       -0.2423
     10 C          63.0698   82.7772   12.7453 C.ar    1  UNL1        0.0989
     11 C          62.5869   84.1532   12.3941 C.ar    1  UNL1        0.0208
     12 C          61.7024   89.8573   11.3077 C.3     1  UNL1        0.1547
     13 CL         66.6110   93.2007   12.1608 Cl      1  UNL1       -0.0822
     14 C          65.3839   92.3648   11.9476 C.ar    1  UNL1        0.0585
     15 C          64.7425   92.3062   10.5929 C.ar    1  UNL1        0.0112
     16 C          63.5153   91.4704   10.3796 C.ar    1  UNL1       -0.0006
     17 C          62.9296   90.6932   11.5210 C.ar    1  UNL1        0.0127
     18 C          63.5710   90.7518   12.8757 C.ar    1  UNL1        0.0564
     19 CL         62.9852   89.9746   14.0171 Cl      1  UNL1       -0.0825
     20 C          64.7981   91.5876   13.0889 C.ar    1  UNL1        0.0225
@<TRIPOS>BOND
     1    13    14    1
     2    14    15   ar
     3    15    16   ar
     4    16    17   ar
     5    17    12    1
     6    12     1    1
     7     1     2   ar
     8     2     3   ar
     9     3     6    1
    10     6     7   ar
    11     7     8   ar
    12     8     9   ar
    13     9    10   ar
    14    10    11   ar
    15     3     4   ar
    16     4     5   ar
    17    17    18   ar
    18    18    19    1
    19    18    20   ar
    20    20    14   ar
    21     5     1   ar
    22    11     6   ar
