@<TRIPOS>MOLECULE
*****
 22 23 0 0 0
SMALL
GASTEIGER

@<TRIPOS>ATOM
      1 C          63.9230   81.9724   13.4542 C.2     1  UNL1        0.4049
      2 O          64.7061   81.8671   12.1793 O.2     1  UNL1       -0.2262
      3 N          63.7681   83.3017   14.1317 N.am    1  UNL1       -0.2454
      4 C          62.9850   83.4070   15.4067 C.3     1  UNL1        0.1011
      5 C          62.8302   84.7363   16.0841 C.3     1  UNL1        0.0443
      6 C          63.4584   85.9603   15.4866 C.2     1  UNL1       -0.0326
      7 C          63.3035   87.2897   16.1640 C.2     1  UNL1        0.0412
      8 C          64.2415   85.8550   14.2116 C.3     1  UNL1        0.0443
      9 C          64.3963   84.5257   13.5341 C.3     1  UNL1        0.1011
     10 C          63.9317   88.5137   15.5665 C.1     1  UNL1       -0.0598
     11 C          64.5600   89.7377   14.9689 C.1     1  UNL1       -0.0597
     12 C          65.1882   90.9617   14.3713 C.ar    1  UNL1        0.0426
     13 C          64.7507   91.4461   13.0207 C.ar    1  UNL1        0.0083
     14 C          65.3789   92.6701   12.4232 C.ar    1  UNL1        0.0013
     15 C          66.4447   93.4098   13.1762 C.ar    1  UNL1        0.0103
     16 C          66.8822   92.9255   14.5267 C.ar    1  UNL1        0.0691
     17 C          66.2540   91.7014   15.1243 C.ar    1  UNL1        0.0185
     18 C          67.9480   93.6652   15.2797 C.1     1  UNL1        0.1004
     19 N          69.0137   94.4049   16.0327 N.1     1  UNL1       -0.1908
     20 O          63.2948   80.7484   14.0518 O.3     1  UNL1       -0.4345
     21 C          60.6970   80.7553   14.0960 C.3     1  UNL1        0.0513
     22 C          61.9852   80.2432   13.5228 C.3     1  UNL1        0.2102
@<TRIPOS>BOND
     1    21    22    1
     2    22    20    1
     3    20     1    1
     4     1     2    2
     5     1     3   am
     6     3     4    1
     7     4     5    1
     8     5     6    1
     9     6     7    2
    10     7    10    1
    11    10    11    3
    12    11    12    1
    13    12    13   ar
    14    13    14   ar
    15    14    15   ar
    16    15    16   ar
    17    16    18    1
    18    18    19    3
    19    16    17   ar
    20     6     8    1
    21     8     9    1
    22     9     3    1
    23    17    12   ar
@<TRIPOS>MOLECULE
*****
 22 23 0 0 0
SMALL
GASTEIGER

@<TRIPOS>ATOM
      1 C          66.4802   93.6643   13.6376 C.2     1  UNL1        0.4049
      2 O          66.4536   94.6758   12.5303 O.2     1  UNL1       -0.2262
      3 N          65.6958   92.3921   13.5104 N.am    1  UNL1       -0.2454
      4 C          65.7224   91.3806   14.6176 C.3     1  UNL1        0.1011
      5 C          64.9380   90.1085   14.4904 C.3     1  UNL1        0.0443
      6 C          64.1269   89.8478   13.2558 C.2     1  UNL1       -0.0326
      7 C          63.3424   88.5756   13.1286 C.2     1  UNL1        0.0412
      8 C          64.1002   90.8593   12.1486 C.3     1  UNL1        0.0443
      9 C          64.8847   92.1315   12.2758 C.3     1  UNL1        0.1011
     10 C          62.5313   88.3149   11.8941 C.1     1  UNL1       -0.0598
     11 C          61.7202   88.0542   10.6594 C.1     1  UNL1       -0.0597
     12 C          60.9091   87.7935    9.4249 C.ar    1  UNL1        0.0426
     13 C          60.5813   86.3850    9.0264 C.ar    1  UNL1        0.0083
     14 C          59.7702   86.1244    7.7919 C.ar    1  UNL1        0.0013
     15 C          59.2868   87.2721    6.9558 C.ar    1  UNL1        0.0103
     16 C          59.6146   88.6806    7.3542 C.ar    1  UNL1        0.0691
     17 C          60.4257   88.9413    8.5888 C.ar    1  UNL1        0.0185
     18 C          59.1312   89.8283    6.5182 C.1     1  UNL1        0.1004
     19 N          58.6479   90.9761    5.6821 N.1     1  UNL1       -0.1908
     20 O          67.2913   93.9250   14.8721 O.3     1  UNL1       -0.4345
     21 C          68.7643   92.3119   16.2787 C.3     1  UNL1        0.0513
     22 C          68.5883   93.2018   15.0840 C.3     1  UNL1        0.2102
@<TRIPOS>BOND
     1    21    22    1
     2    22    20    1
     3    20     1    1
     4     1     2    2
     5     1     3   am
     6     3     4    1
     7     4     5    1
     8     5     6    1
     9     6     7    2
    10     7    10    1
    11    10    11    3
    12    11    12    1
    13    12    13   ar
    14    13    14   ar
    15    14    15   ar
    16    15    16   ar
    17    16    18    1
    18    18    19    3
    19    16    17   ar
    20     6     8    1
    21     8     9    1
    22     9     3    1
    23    17    12   ar
@<TRIPOS>MOLECULE
*****
 22 23 0 0 0
SMALL
GASTEIGER

@<TRIPOS>ATOM
      1 C          63.7710   82.4313   13.8654 C.2     1  UNL1        0.4049
      2 O          64.6551   82.2889   12.6621 O.2     1  UNL1       -0.2262
      3 N          63.6085   83.7699   14.5226 N.am    1  UNL1       -0.2454
      4 C          62.7244   83.9122   15.7259 C.3     1  UNL1        0.1011
      5 C          62.5619   85.2508   16.3831 C.3     1  UNL1        0.0443
      6 C          63.2835   86.4470   15.8369 C.2     1  UNL1       -0.0326
      7 C          63.1209   87.7855   16.4940 C.2     1  UNL1        0.0412
      8 C          64.1675   86.3046   14.6335 C.3     1  UNL1        0.0443
      9 C          64.3301   84.9661   13.9764 C.3     1  UNL1        0.1011
     10 C          63.8425   88.9817   15.9478 C.1     1  UNL1       -0.0598
     11 C          64.5641   90.1780   15.4016 C.1     1  UNL1       -0.0597
     12 C          65.2857   91.3742   14.8554 C.ar    1  UNL1        0.0426
     13 C          66.0817   92.2538   15.7735 C.ar    1  UNL1        0.0083
     14 C          66.8032   93.4500   15.2273 C.ar    1  UNL1        0.0013
     15 C          66.7289   93.7667   13.7631 C.ar    1  UNL1        0.0103
     16 C          65.9330   92.8872   12.8449 C.ar    1  UNL1        0.0691
     17 C          65.2113   91.6910   13.3911 C.ar    1  UNL1        0.0185
     18 C          65.8586   93.2040   11.3806 C.1     1  UNL1        0.1004
     19 N          65.7843   93.5207    9.9164 N.1     1  UNL1       -0.1908
     20 O          63.0494   81.2351   14.4116 O.3     1  UNL1       -0.4345
     21 C          60.5298   80.6499   14.1677 C.3     1  UNL1        0.0513
     22 C          61.9299   80.6133   13.6305 C.3     1  UNL1        0.2102
@<TRIPOS>BOND
     1    21    22    1
     2    22    20    1
     3    20     1    1
     4     1     2    2
     5     1     3   am
     6     3     4    1
     7     4     5    1
     8     5     6    1
     9     6     7    2
    10     7    10    1
    11    10    11    3
    12    11    12    1
    13    12    13   ar
    14    13    14   ar
    15    14    15   ar
    16    15    16   ar
    17    16    18    1
    18    18    19    3
    19    16    17   ar
    20     6     8    1
    21     8     9    1
    22     9     3    1
    23    17    12   ar
@<TRIPOS>MOLECULE
*****
 22 23 0 0 0
SMALL
GASTEIGER

@<TRIPOS>ATOM
      1 C          63.2138   81.5955   12.8906 C.2     1  UNL1        0.4049
      2 O          63.9374   81.1306   14.1194 O.2     1  UNL1       -0.2262
      3 N          63.0990   83.0622   12.5976 N.am    1  UNL1       -0.2454
      4 C          62.3754   83.5272   11.3688 C.3     1  UNL1        0.1011
      5 C          62.2606   84.9938   11.0758 C.3     1  UNL1        0.0443
      6 C          62.8695   85.9954   12.0117 C.2     1  UNL1       -0.0326
      7 C          62.7548   87.4621   11.7188 C.2     1  UNL1        0.0412
      8 C          63.5931   85.5305   13.2406 C.3     1  UNL1        0.0443
      9 C          63.7079   84.0638   13.5335 C.3     1  UNL1        0.1011
     10 C          63.3637   88.4637   12.6547 C.1     1  UNL1       -0.0598
     11 C          63.9725   89.4654   13.5906 C.1     1  UNL1       -0.0597
     12 C          64.5814   90.4671   14.5265 C.ar    1  UNL1        0.0426
     13 C          63.7992   90.9633   15.7064 C.ar    1  UNL1        0.0083
     14 C          64.4081   91.9650   16.6422 C.ar    1  UNL1        0.0013
     15 C          65.7991   92.4704   16.3984 C.ar    1  UNL1        0.0103
     16 C          66.5813   91.9742   15.2186 C.ar    1  UNL1        0.0691
     17 C          65.9725   90.9725   14.2826 C.ar    1  UNL1        0.0185
     18 C          67.9724   92.4797   14.9747 C.1     1  UNL1        0.1004
     19 N          69.3634   92.9851   14.7308 N.1     1  UNL1       -0.1908
     20 O          62.6049   80.5939   11.9547 O.3     1  UNL1       -0.4345
     21 C          62.7321   79.2789    9.7176 C.3     1  UNL1        0.0513
     22 C          63.1326   80.4555   10.5574 C.3     1  UNL1        0.2102
@<TRIPOS>BOND
     1    21    22    1
     2    22    20    1
     3    20     1    1
     4     1     2    2
     5     1     3   am
     6     3     4    1
     7     4     5    1
     8     5     6    1
     9     6     7    2
    10     7    10    1
    11    10    11    3
    12    11    12    1
    13    12    13   ar
    14    13    14   ar
    15    14    15   ar
    16    15    16   ar
    17    16    18    1
    18    18    19    3
    19    16    17   ar
    20     6     8    1
    21     8     9    1
    22     9     3    1
    23    17    12   ar
@<TRIPOS>MOLECULE
*****
 22 23 0 0 0
SMALL
GASTEIGER

@<TRIPOS>ATOM
      1 C          66.5151   93.7095   13.7558 C.2     1  UNL1        0.4049
      2 O          66.4599   94.6994   12.6303 O.2     1  UNL1       -0.2262
      3 N          65.7642   92.4150   13.6536 N.am    1  UNL1       -0.2454
      4 C          65.8193   91.4251   14.7792 C.3     1  UNL1        0.1011
      5 C          65.0684   90.1306   14.6770 C.3     1  UNL1        0.0443
      6 C          64.2623   89.8260   13.4492 C.2     1  UNL1       -0.0326
      7 C          63.5114   88.5316   13.3470 C.2     1  UNL1        0.0412
      8 C          64.2072   90.8160   12.3236 C.3     1  UNL1        0.0443
      9 C          64.9581   92.1105   12.4259 C.3     1  UNL1        0.1011
     10 C          62.7053   88.2270   12.1192 C.1     1  UNL1       -0.0598
     11 C          61.8992   87.9224   10.8914 C.1     1  UNL1       -0.0597
     12 C          61.0931   87.6179    9.6637 C.ar    1  UNL1        0.0426
     13 C          59.9067   88.4672    9.3156 C.ar    1  UNL1        0.0083
     14 C          59.1006   88.1627    8.0878 C.ar    1  UNL1        0.0013
     15 C          59.4809   87.0089    7.2081 C.ar    1  UNL1        0.0103
     16 C          60.6673   86.1595    7.5561 C.ar    1  UNL1        0.0691
     17 C          61.4734   86.4641    8.7839 C.ar    1  UNL1        0.0185
     18 C          61.0476   85.0057    6.6763 C.1     1  UNL1        0.1004
     19 N          61.4278   83.8518    5.7965 N.1     1  UNL1       -0.1908
     20 O          67.3211   94.0140   14.9836 O.3     1  UNL1       -0.4345
     21 C          68.8502   92.3386   16.2505 C.3     1  UNL1        0.0513
     22 C          68.6623   93.3712   15.1788 C.3     1  UNL1        0.2102
@<TRIPOS>BOND
     1    21    22    1
     2    22    20    1
     3    20     1    1
     4     1     2    2
     5     1     3   am
     6     3     4    1
     7     4     5    1
     8     5     6    1
     9     6     7    2
    10     7    10    1
    11    10    11    3
    12    11    12    1
    13    12    13   ar
    14    13    14   ar
    15    14    15   ar
    16    15    16   ar
    17    16    18    1
    18    18    19    3
    19    16    17   ar
    20     6     8    1
    21     8     9    1
    22     9     3    1
    23    17    12   ar
@<TRIPOS>MOLECULE
*****
 22 23 0 0 0
SMALL
GASTEIGER

@<TRIPOS>ATOM
      1 C          63.0041   82.7456   13.7841 C.2     1  UNL1        0.4049
      2 O          63.9521   82.5228   14.9250 O.2     1  UNL1       -0.2262
      3 N          62.8746   84.1088   13.1718 N.am    1  UNL1       -0.2454
      4 C          61.9266   84.3315   12.0309 C.3     1  UNL1        0.1011
      5 C          61.7970   85.6947   11.4186 C.3     1  UNL1        0.0443
      6 C          62.6155   86.8351   11.9472 C.2     1  UNL1       -0.0326
      7 C          62.4859   88.1983   11.3349 C.2     1  UNL1        0.0412
      8 C          63.5635   86.6124   13.0881 C.3     1  UNL1        0.0443
      9 C          63.6930   85.2492   13.7004 C.3     1  UNL1        0.1011
     10 C          63.3044   89.3388   11.8635 C.1     1  UNL1       -0.0598
     11 C          64.1229   90.4793   12.3921 C.1     1  UNL1       -0.0597
     12 C          64.9413   91.6198   12.9206 C.ar    1  UNL1        0.0426
     13 C          65.4354   91.5954   14.3368 C.ar    1  UNL1        0.0083
     14 C          66.2538   92.7358   14.8654 C.ar    1  UNL1        0.0013
     15 C          66.5783   93.9008   13.9778 C.ar    1  UNL1        0.0103
     16 C          66.0843   93.9252   12.5618 C.ar    1  UNL1        0.0691
     17 C          65.2658   92.7847   12.0331 C.ar    1  UNL1        0.0185
     18 C          66.4087   95.0901   11.6742 C.1     1  UNL1        0.1004
     19 N          66.7332   96.2550   10.7867 N.1     1  UNL1       -0.1908
     20 O          62.1857   81.6051   13.2556 O.3     1  UNL1       -0.4345
     21 C          63.1293   81.0104   10.9091 C.3     1  UNL1        0.0513
     22 C          62.8028   80.6105   12.3175 C.3     1  UNL1        0.2102
@<TRIPOS>BOND
     1    21    22    1
     2    22    20    1
     3    20     1    1
     4     1     2    2
     5     1     3   am
     6     3     4    1
     7     4     5    1
     8     5     6    1
     9     6     7    2
    10     7    10    1
    11    10    11    3
    12    11    12    1
    13    12    13   ar
    14    13    14   ar
    15    14    15   ar
    16    15    16   ar
    17    16    18    1
    18    18    19    3
    19    16    17   ar
    20     6     8    1
    21     8     9    1
    22     9     3    1
    23    17    12   ar
@<TRIPOS>MOLECULE
*****
 22 23 0 0 0
SMALL
GASTEIGER

@<TRIPOS>ATOM
      1 C          65.4022   92.0036   14.2202 C.2     1  UNL1        0.4049
      2 O          66.1945   91.6346   15.4392 O.2     1  UNL1       -0.2262
      3 N          64.6457   90.9480   13.4695 N.am    1  UNL1       -0.2454
      4 C          63.8534   91.3170   12.2504 C.3     1  UNL1        0.1011
      5 C          63.0970   90.2614   11.4997 C.3     1  UNL1        0.0443
      6 C          63.1329   88.8369   11.9681 C.2     1  UNL1       -0.0326
      7 C          62.3764   87.7813   11.2173 C.2     1  UNL1        0.0412
      8 C          63.9252   88.4679   13.1871 C.3     1  UNL1        0.0443
      9 C          64.6816   89.5235   13.9378 C.3     1  UNL1        0.1011
     10 C          62.4123   86.3568   11.6857 C.1     1  UNL1       -0.0598
     11 C          62.4481   84.9321   12.1540 C.1     1  UNL1       -0.0597
     12 C          62.4840   83.5076   12.6223 C.ar    1  UNL1        0.0426
     13 C          62.3878   83.1968   14.0866 C.ar    1  UNL1        0.0083
     14 C          62.4236   81.7723   14.5549 C.ar    1  UNL1        0.0013
     15 C          62.5557   80.6585   13.5590 C.ar    1  UNL1        0.0103
     16 C          62.6519   80.9692   12.0947 C.ar    1  UNL1        0.0691
     17 C          62.6160   82.3938   11.6263 C.ar    1  UNL1        0.0185
     18 C          62.7839   79.8554   11.0987 C.1     1  UNL1        0.1004
     19 N          62.9160   78.7415   10.1028 N.1     1  UNL1       -0.1908
     20 O          65.3663   93.4281   13.7519 O.3     1  UNL1       -0.4345
     21 C          66.0452   94.2692   11.3893 C.3     1  UNL1        0.0513
     22 C          66.4136   93.9326   12.8039 C.3     1  UNL1        0.2102
@<TRIPOS>BOND
     1    21    22    1
     2    22    20    1
     3    20     1    1
     4     1     2    2
     5     1     3   am
     6     3     4    1
     7     4     5    1
     8     5     6    1
     9     6     7    2
    10     7    10    1
    11    10    11    3
    12    11    12    1
    13    12    13   ar
    14    13    14   ar
    15    14    15   ar
    16    15    16   ar
    17    16    18    1
    18    18    19    3
    19    16    17   ar
    20     6     8    1
    21     8     9    1
    22     9     3    1
    23    17    12   ar
@<TRIPOS>MOLECULE
*****
 22 23 0 0 0
SMALL
GASTEIGER

@<TRIPOS>ATOM
      1 C          63.8718   91.4948   11.7562 C.2     1  UNL1        0.4049
      2 O          63.2740   91.3377   10.3895 O.2     1  UNL1       -0.2262
      3 N          64.0035   90.3040   12.6587 N.am    1  UNL1       -0.2454
      4 C          64.6013   90.4611   14.0254 C.3     1  UNL1        0.1011
      5 C          64.7329   89.2703   14.9280 C.3     1  UNL1        0.0443
      6 C          64.2667   87.9223   14.4638 C.2     1  UNL1       -0.0326
      7 C          64.3983   86.7315   15.3664 C.2     1  UNL1        0.0412
      8 C          63.6689   87.7651   13.0971 C.3     1  UNL1        0.0443
      9 C          63.5372   88.9560   12.1946 C.3     1  UNL1        0.1011
     10 C          63.9321   85.3834   14.9022 C.1     1  UNL1       -0.0598
     11 C          63.4659   84.0354   14.4380 C.1     1  UNL1       -0.0597
     12 C          62.9997   82.6874   13.9739 C.ar    1  UNL1        0.0426
     13 C          63.8798   81.8520   13.0920 C.ar    1  UNL1        0.0083
     14 C          63.4136   80.5040   12.6279 C.ar    1  UNL1        0.0013
     15 C          62.0673   79.9913   13.0455 C.ar    1  UNL1        0.0103
     16 C          61.1871   80.8265   13.9273 C.ar    1  UNL1        0.0691
     17 C          61.6533   82.1746   14.3915 C.ar    1  UNL1        0.0185
     18 C          59.8408   80.3138   14.3449 C.1     1  UNL1        0.1004
     19 N          58.4944   79.8011   14.7626 N.1     1  UNL1       -0.1908
     20 O          64.3380   92.8428   12.2204 O.3     1  UNL1       -0.4345
     21 C          66.4059   92.9225   10.6495 C.3     1  UNL1        0.0513
     22 C          65.7449   93.2852   11.9462 C.3     1  UNL1        0.2102
@<TRIPOS>BOND
     1    21    22    1
     2    22    20    1
     3    20     1    1
     4     1     2    2
     5     1     3   am
     6     3     4    1
     7     4     5    1
     8     5     6    1
     9     6     7    2
    10     7    10    1
    11    10    11    3
    12    11    12    1
    13    12    13   ar
    14    13    14   ar
    15    14    15   ar
    16    15    16   ar
    17    16    18    1
    18    18    19    3
    19    16    17   ar
    20     6     8    1
    21     8     9    1
    22     9     3    1
    23    17    12   ar
@<TRIPOS>MOLECULE
*****
 22 23 0 0 0
SMALL
GASTEIGER

@<TRIPOS>ATOM
      1 C          62.9313   83.5508   14.0391 C.2     1  UNL1        0.4049
      2 O          63.9165   83.5239   15.1698 O.2     1  UNL1       -0.2262
      3 N          62.7754   84.7908   13.2095 N.am    1  UNL1       -0.2454
      4 C          61.7902   84.8177   12.0788 C.3     1  UNL1        0.1011
      5 C          61.6343   86.0576   11.2492 C.3     1  UNL1        0.0443
      6 C          62.4636   87.2707   11.5503 C.2     1  UNL1       -0.0326
      7 C          62.3077   88.5106   10.7208 C.2     1  UNL1        0.0412
      8 C          63.4488   87.2437   12.6811 C.3     1  UNL1        0.0443
      9 C          63.6047   86.0038   13.5106 C.3     1  UNL1        0.1011
     10 C          63.1371   89.7237   11.0219 C.1     1  UNL1       -0.0598
     11 C          63.9664   90.9368   11.3231 C.1     1  UNL1       -0.0597
     12 C          64.7957   92.1498   11.6242 C.ar    1  UNL1        0.0426
     13 C          64.9320   93.2381   10.6009 C.ar    1  UNL1        0.0083
     14 C          65.7613   94.4512   10.9021 C.ar    1  UNL1        0.0013
     15 C          66.4544   94.5760   12.2265 C.ar    1  UNL1        0.0103
     16 C          66.3181   93.4877   13.2498 C.ar    1  UNL1        0.0691
     17 C          65.4888   92.2746   12.9487 C.ar    1  UNL1        0.0185
     18 C          67.0112   93.6125   14.5742 C.1     1  UNL1        0.1004
     19 N          67.7042   93.7373   15.8986 N.1     1  UNL1       -0.1908
     20 O          62.1020   82.3378   13.7379 O.3     1  UNL1       -0.4345
     21 C          63.8593   81.2447   12.1672 C.3     1  UNL1        0.0513
     22 C          62.4285   81.4820   12.5500 C.3     1  UNL1        0.2102
@<TRIPOS>BOND
     1    21    22    1
     2    22    20    1
     3    20     1    1
     4     1     2    2
     5     1     3   am
     6     3     4    1
     7     4     5    1
     8     5     6    1
     9     6     7    2
    10     7    10    1
    11    10    11    3
    12    11    12    1
    13    12    13   ar
    14    13    14   ar
    15    14    15   ar
    16    15    16   ar
    17    16    18    1
    18    18    19    3
    19    16    17   ar
    20     6     8    1
    21     8     9    1
    22     9     3    1
    23    17    12   ar
