@<TRIPOS>MOLECULE
*****
 24 27 0 0 0
SMALL
GASTEIGER

@<TRIPOS>ATOM
      1 C          61.9996   85.9657    9.6580 C.2     1  UNL1        0.1669
      2 C          63.0128   84.9150    9.3123 C.2     1  UNL1        0.0545
      3 C          63.5427   84.0042   10.3797 C.2     1  UNL1        0.0702
      4 N          64.5394   82.8839   10.3394 N.2     1  UNL1       -0.2475
      5 C          64.6720   82.3313   11.7275 C.2     1  UNL1        0.1013
      6 C          63.7573   83.1100   12.6258 C.2     1  UNL1        0.0818
      7 C          63.0593   84.1439   11.7928 C.3     1  UNL1        0.0947
      8 C          62.0461   85.1946   12.1385 C.2     1  UNL1        0.0169
      9 C          61.5163   86.1055   11.0710 C.2     1  UNL1        0.1703
     10 F          60.5030   87.1562   11.4167 F       1  UNL1       -0.2013
     11 C          60.1439   86.5900    7.9500 C.3     1  UNL1        0.2526
     12 O          61.4697   86.8767    8.5905 O.2     1  UNL1       -0.4691
     13 C          63.5729   82.8929   14.0985 C.2     1  UNL1        0.3394
     14 O          62.6267   81.8371   14.5883 O.2     1  UNL1       -0.2452
     15 O          64.3348   83.7317   15.0815 O.3     1  UNL1       -0.4456
     16 C          64.8225   85.0937   14.6856 C.3     1  UNL1        0.2087
     17 C          64.2335   86.3163   15.3246 C.3     1  UNL1        0.0445
     18 C          63.4534   86.1940   16.6000 C.3     1  UNL1        0.0210
     19 C          62.8643   87.4165   17.2390 C.3     1  UNL1        0.0722
     20 N          63.0553   88.7614   16.6027 N.3     1  UNL1       -0.2727
     21 C          63.8353   88.8837   15.3273 C.3     1  UNL1        0.0722
     22 C          64.4244   87.6612   14.6883 C.3     1  UNL1        0.0210
     23 C          63.3969   88.1201   16.2154 C.3     1  UNL1        0.0722
     24 C          63.9295   87.0146   15.6376 C.3     1  UNL1        0.0210
@<TRIPOS>BOND
     1    11    12    1
     2    12     1    1
     3     1     2    2
     4     2     3    1
     5     3     4    2
     6     4     5    1
     7     5     6    2
     8     6    13    1
     9    13    14    2
    10    13    15    1
    11    15    16    1
    12    16    17    1
    13    17    18    1
    14    18    19    1
    15    19    20    1
    16    20    21    1
    17    21    22    1
    18    20    23    1
    19    23    24    1
    20     6     7    1
    21     7     8    1
    22     8     9    2
    23     9    10    1
    24     9     1    1
    25     7     3    1
    26    22    17    1
    27    24    17    1
@<TRIPOS>MOLECULE
*****
 24 27 0 0 0
SMALL
GASTEIGER

@<TRIPOS>ATOM
      1 C          63.7500   90.0874   15.7614 C.2     1  UNL1        0.1669
      2 C          63.1033   89.3033   16.8646 C.2     1  UNL1        0.0545
      3 C          63.0547   87.8058   16.7915 C.2     1  UNL1        0.0702
      4 N          62.4881   86.7735   17.7205 N.2     1  UNL1       -0.2475
      5 C          62.7361   85.4222   17.1185 C.2     1  UNL1        0.1013
      6 C          63.4559   85.6193   15.8174 C.2     1  UNL1        0.0818
      7 C          63.6529   87.0926   15.6153 C.3     1  UNL1        0.0947
      8 C          64.2996   87.8767   14.5121 C.2     1  UNL1        0.0169
      9 C          64.3481   89.3741   14.5852 C.2     1  UNL1        0.1703
     10 F          64.9949   90.1582   13.4820 F       1  UNL1       -0.2013
     11 C          65.1012   92.2812   16.0961 C.3     1  UNL1        0.2526
     12 O          63.7986   91.5849   15.8344 O.2     1  UNL1       -0.4691
     13 C          63.9007   84.5339   14.8826 C.2     1  UNL1        0.3394
     14 O          64.2691   83.1837   15.4222 O.2     1  UNL1       -0.2452
     15 O          63.9771   84.7986   13.4081 O.3     1  UNL1       -0.4456
     16 C          62.9563   84.2020   12.4852 C.3     1  UNL1        0.2087
     17 C          62.6172   84.8903   11.1963 C.3     1  UNL1        0.0445
     18 C          61.5658   85.9599   11.1712 C.3     1  UNL1        0.0210
     19 C          61.2267   86.6482    9.8824 C.3     1  UNL1        0.0722
     20 N          61.9390   86.2670    8.6185 N.3     1  UNL1       -0.2727
     21 C          62.9904   85.1975    8.6435 C.3     1  UNL1        0.0722
     22 C          63.3295   84.5091    9.9324 C.3     1  UNL1        0.0210
     23 C          62.1591   85.8617    9.3006 C.3     1  UNL1        0.0722
     24 C          62.4657   85.2393   10.4661 C.3     1  UNL1        0.0210
@<TRIPOS>BOND
     1    11    12    1
     2    12     1    1
     3     1     2    2
     4     2     3    1
     5     3     4    2
     6     4     5    1
     7     5     6    2
     8     6    13    1
     9    13    14    2
    10    13    15    1
    11    15    16    1
    12    16    17    1
    13    17    18    1
    14    18    19    1
    15    19    20    1
    16    20    21    1
    17    21    22    1
    18    20    23    1
    19    23    24    1
    20     6     7    1
    21     7     8    1
    22     8     9    2
    23     9    10    1
    24     9     1    1
    25     7     3    1
    26    22    17    1
    27    24    17    1
@<TRIPOS>MOLECULE
*****
 24 27 0 0 0
SMALL
GASTEIGER

@<TRIPOS>ATOM
      1 C          66.2349   93.2301   12.1274 C.2     1  UNL1        0.1669
      2 C          65.1608   92.4847   11.3920 C.2     1  UNL1        0.0545
      3 C          64.3289   91.4645   12.1112 C.2     1  UNL1        0.0702
      4 N          63.2075   90.5800   11.6529 N.2     1  UNL1       -0.2475
      5 C          62.7567   89.7586   12.8242 C.2     1  UNL1        0.1013
      6 C          63.5994   90.1355   14.0065 C.2     1  UNL1        0.0818
      7 C          64.5711   91.1898   13.5658 C.3     1  UNL1        0.0947
      8 C          65.6452   91.9352   14.3012 C.2     1  UNL1        0.0169
      9 C          66.4770   92.9553   13.5819 C.2     1  UNL1        0.1703
     10 F          67.5511   93.7007   14.3174 F       1  UNL1       -0.2013
     11 C          66.9650   94.3852    9.9177 C.3     1  UNL1        0.2526
     12 O          67.0668   94.2502   11.4081 O.2     1  UNL1       -0.4691
     13 C          63.4897   89.5592   15.3870 C.2     1  UNL1        0.3394
     14 O          63.3198   90.4683   16.5679 O.2     1  UNL1       -0.2452
     15 O          63.5498   88.0737   15.5866 O.3     1  UNL1       -0.4456
     16 C          64.4944   87.2447   14.7679 C.3     1  UNL1        0.2087
     17 C          64.0768   85.8865   14.2873 C.3     1  UNL1        0.0445
     18 C          63.3457   85.7437   12.9853 C.3     1  UNL1        0.0210
     19 C          62.9281   84.3855   12.5046 C.3     1  UNL1        0.0722
     20 N          63.2416   83.1701   13.3260 N.3     1  UNL1       -0.2727
     21 C          63.9726   83.3129   14.6280 C.3     1  UNL1        0.0722
     22 C          64.3903   84.6711   15.1086 C.3     1  UNL1        0.0210
     23 C          63.4907   83.8934   13.6306 C.3     1  UNL1        0.0722
     24 C          63.8683   85.1215   14.0652 C.3     1  UNL1        0.0210
@<TRIPOS>BOND
     1    11    12    1
     2    12     1    1
     3     1     2    2
     4     2     3    1
     5     3     4    2
     6     4     5    1
     7     5     6    2
     8     6    13    1
     9    13    14    2
    10    13    15    1
    11    15    16    1
    12    16    17    1
    13    17    18    1
    14    18    19    1
    15    19    20    1
    16    20    21    1
    17    21    22    1
    18    20    23    1
    19    23    24    1
    20     6     7    1
    21     7     8    1
    22     8     9    2
    23     9    10    1
    24     9     1    1
    25     7     3    1
    26    22    17    1
    27    24    17    1
@<TRIPOS>MOLECULE
*****
 24 27 0 0 0
SMALL
GASTEIGER

@<TRIPOS>ATOM
      1 C          63.4577   85.3198   15.9790 C.2     1  UNL1        0.1669
      2 C          62.7702   83.9961   15.8197 C.2     1  UNL1        0.0545
      3 C          62.7201   83.3341   14.4746 C.2     1  UNL1        0.0702
      4 N          62.1181   82.0394   14.0150 N.2     1  UNL1       -0.2475
      5 C          62.3835   81.9008   12.5452 C.2     1  UNL1        0.1013
      6 C          63.1495   83.1099   12.0964 C.2     1  UNL1        0.0818
      7 C          63.3575   83.9957   13.2889 C.3     1  UNL1        0.0947
      8 C          64.0451   85.3193   13.4483 C.2     1  UNL1        0.0169
      9 C          64.0951   85.9813   14.7933 C.2     1  UNL1        0.1703
     10 F          64.7827   87.3050   14.9526 F       1  UNL1       -0.2013
     11 C          62.7403   87.2476   17.5661 C.3     1  UNL1        0.2526
     12 O          63.5078   85.9818   17.3242 O.2     1  UNL1       -0.4691
     13 C          63.6241   83.3848   10.7003 C.2     1  UNL1        0.3394
     14 O          64.6330   82.4787   10.0591 O.2     1  UNL1       -0.2452
     15 O          63.0898   84.5658    9.9454 O.3     1  UNL1       -0.4456
     16 C          61.8215   85.2301   10.3922 C.3     1  UNL1        0.2087
     17 C          61.6333   86.7037   10.1848 C.3     1  UNL1        0.0445
     18 C          60.6952   87.1979    9.1237 C.3     1  UNL1        0.0210
     19 C          60.5069   88.6715    8.9162 C.3     1  UNL1        0.0722
     20 N          61.2567   89.6510    9.7699 N.3     1  UNL1       -0.2727
     21 C          62.1947   89.1568   10.8309 C.3     1  UNL1        0.0722
     22 C          62.3830   87.6831   11.0384 C.3     1  UNL1        0.0210
     23 C          61.3926   88.8530    9.9207 C.3     1  UNL1        0.0722
     24 C          61.5628   87.5205   10.1083 C.3     1  UNL1        0.0210
@<TRIPOS>BOND
     1    11    12    1
     2    12     1    1
     3     1     2    2
     4     2     3    1
     5     3     4    2
     6     4     5    1
     7     5     6    2
     8     6    13    1
     9    13    14    2
    10    13    15    1
    11    15    16    1
    12    16    17    1
    13    17    18    1
    14    18    19    1
    15    19    20    1
    16    20    21    1
    17    21    22    1
    18    20    23    1
    19    23    24    1
    20     6     7    1
    21     7     8    1
    22     8     9    2
    23     9    10    1
    24     9     1    1
    25     7     3    1
    26    22    17    1
    27    24    17    1
@<TRIPOS>MOLECULE
*****
 24 27 0 0 0
SMALL
GASTEIGER

@<TRIPOS>ATOM
      1 C          64.2125   90.9158   13.2618 C.2     1  UNL1        0.1669
      2 C          63.4845   91.2322   11.9890 C.2     1  UNL1        0.0545
      3 C          62.7712   90.1441   11.2426 C.2     1  UNL1        0.0702
      4 N          61.9753   90.1544    9.9712 N.2     1  UNL1       -0.2475
      5 C          61.4981   88.7562    9.7118 C.2     1  UNL1        0.1013
      6 C          61.9990   87.8818   10.8229 C.2     1  UNL1        0.0818
      7 C          62.7859   88.7395   11.7690 C.3     1  UNL1        0.0947
      8 C          63.5139   88.4231   13.0417 C.2     1  UNL1        0.0169
      9 C          64.2272   89.5113   13.7881 C.2     1  UNL1        0.1703
     10 F          64.9551   89.1948   15.0610 F       1  UNL1       -0.2013
     11 C          66.4239   92.0034   14.0847 C.3     1  UNL1        0.2526
     12 O          64.9259   92.0040   14.0083 O.2     1  UNL1       -0.4691
     13 C          61.7558   86.4083   10.9632 C.2     1  UNL1        0.3394
     14 O          61.3314   85.6015    9.7720 O.2     1  UNL1       -0.2452
     15 O          61.9370   85.7416   12.2947 O.3     1  UNL1       -0.4456
     16 C          63.0745   84.7872   12.5069 C.3     1  UNL1        0.2087
     17 C          62.8002   83.3262   12.7077 C.3     1  UNL1        0.0445
     18 C          63.0734   82.3527   11.5996 C.3     1  UNL1        0.0210
     19 C          62.7992   80.8917   11.8003 C.3     1  UNL1        0.0722
     20 N          62.2517   80.4042   13.1091 N.3     1  UNL1       -0.2727
     21 C          61.9786   81.3777   14.2170 C.3     1  UNL1        0.0722
     22 C          62.2528   82.8387   14.0163 C.3     1  UNL1        0.0210
     23 C          62.3861   81.2142   13.0460 C.3     1  UNL1        0.0722
     24 C          62.6341   82.5352   12.8645 C.3     1  UNL1        0.0210
@<TRIPOS>BOND
     1    11    12    1
     2    12     1    1
     3     1     2    2
     4     2     3    1
     5     3     4    2
     6     4     5    1
     7     5     6    2
     8     6    13    1
     9    13    14    2
    10    13    15    1
    11    15    16    1
    12    16    17    1
    13    17    18    1
    14    18    19    1
    15    19    20    1
    16    20    21    1
    17    21    22    1
    18    20    23    1
    19    23    24    1
    20     6     7    1
    21     7     8    1
    22     8     9    2
    23     9    10    1
    24     9     1    1
    25     7     3    1
    26    22    17    1
    27    24    17    1
@<TRIPOS>MOLECULE
*****
 24 27 0 0 0
SMALL
GASTEIGER

@<TRIPOS>ATOM
      1 C          63.6833   90.3303   15.9648 C.2     1  UNL1        0.1669
      2 C          63.0545   89.2921   16.8462 C.2     1  UNL1        0.0545
      3 C          63.1777   87.8383   16.4981 C.2     1  UNL1        0.0702
      4 N          62.6677   86.5985   17.1708 N.2     1  UNL1       -0.2475
      5 C          63.1046   85.4165   16.3571 C.2     1  UNL1        0.1013
      6 C          63.8845   85.9259   15.1814 C.2     1  UNL1        0.0818
      7 C          63.9297   87.4227   15.2685 C.3     1  UNL1        0.0947
      8 C          64.5585   88.4609   14.3872 C.2     1  UNL1        0.0169
      9 C          64.4353   89.9147   14.7353 C.2     1  UNL1        0.1703
     10 F          65.0641   90.9529   13.8539 F       1  UNL1       -0.2013
     11 C          64.7674   92.5528   16.7620 C.3     1  UNL1        0.2526
     12 O          63.5601   91.7842   16.3129 O.2     1  UNL1       -0.4691
     13 C          64.5095   85.0860   14.1072 C.2     1  UNL1        0.3394
     14 O          65.8146   84.3918   14.3620 O.2     1  UNL1       -0.2452
     15 O          63.8294   84.9402   12.7782 O.3     1  UNL1       -0.4456
     16 C          62.5071   84.2384   12.6854 C.3     1  UNL1        0.2087
     17 C          62.4366   82.7479   12.8390 C.3     1  UNL1        0.0445
     18 C          62.9211   81.8564   11.7341 C.3     1  UNL1        0.0210
     19 C          62.8507   80.3659   11.8876 C.3     1  UNL1        0.0722
     20 N          62.2957   79.7669   13.1460 N.3     1  UNL1       -0.2727
     21 C          61.8112   80.6584   14.2507 C.3     1  UNL1        0.0722
     22 C          61.8817   82.1489   14.0972 C.3     1  UNL1        0.0210
     23 C          62.3141   80.5893   13.1078 C.3     1  UNL1        0.0722
     24 C          62.3778   81.9370   12.9689 C.3     1  UNL1        0.0210
@<TRIPOS>BOND
     1    11    12    1
     2    12     1    1
     3     1     2    2
     4     2     3    1
     5     3     4    2
     6     4     5    1
     7     5     6    2
     8     6    13    1
     9    13    14    2
    10    13    15    1
    11    15    16    1
    12    16    17    1
    13    17    18    1
    14    18    19    1
    15    19    20    1
    16    20    21    1
    17    21    22    1
    18    20    23    1
    19    23    24    1
    20     6     7    1
    21     7     8    1
    22     8     9    2
    23     9    10    1
    24     9     1    1
    25     7     3    1
    26    22    17    1
    27    24    17    1
@<TRIPOS>MOLECULE
*****
 24 27 0 0 0
SMALL
GASTEIGER

@<TRIPOS>ATOM
      1 C          59.6547   88.4439    7.9294 C.2     1  UNL1        0.1669
      2 C          60.3951   89.3526    8.8655 C.2     1  UNL1        0.0545
      3 C          61.2677   88.7734    9.9393 C.2     1  UNL1        0.0702
      4 N          62.1125   89.4141   11.0004 N.2     1  UNL1       -0.2475
      5 C          62.7669   88.3222   11.7938 C.2     1  UNL1        0.1013
      6 C          62.3265   87.0067   11.2232 C.2     1  UNL1        0.0818
      7 C          61.4000   87.2856   10.0770 C.3     1  UNL1        0.0947
      8 C          60.6596   86.3770    9.1410 C.2     1  UNL1        0.0169
      9 C          59.7870   86.9561    8.0672 C.2     1  UNL1        0.1703
     10 F          59.0466   86.0474    7.1311 F       1  UNL1       -0.2013
     11 C          59.3135   90.1002    5.9570 C.3     1  UNL1        0.2526
     12 O          58.7820   89.0231    6.8556 O.2     1  UNL1       -0.4691
     13 C          62.7401   85.6505   11.7128 C.2     1  UNL1        0.3394
     14 O          62.9214   84.5246   10.7385 O.2     1  UNL1       -0.2452
     15 O          62.9724   85.4203   13.1768 O.3     1  UNL1       -0.4456
     16 C          63.7289   84.2088   13.6346 C.3     1  UNL1        0.2087
     17 C          63.1034   82.8495   13.5286 C.3     1  UNL1        0.0445
     18 C          63.6022   81.8723   12.5057 C.3     1  UNL1        0.0210
     19 C          62.9768   80.5130   12.3996 C.3     1  UNL1        0.0722
     20 N          61.8526   80.1310   13.3164 N.3     1  UNL1       -0.2727
     21 C          61.3539   81.1082   14.3392 C.3     1  UNL1        0.0722
     22 C          61.9793   82.4675   14.4453 C.3     1  UNL1        0.0210
     23 C          62.1637   80.8873   13.4122 C.3     1  UNL1        0.0722
     24 C          62.7293   82.1164   13.5081 C.3     1  UNL1        0.0210
@<TRIPOS>BOND
     1    11    12    1
     2    12     1    1
     3     1     2    2
     4     2     3    1
     5     3     4    2
     6     4     5    1
     7     5     6    2
     8     6    13    1
     9    13    14    2
    10    13    15    1
    11    15    16    1
    12    16    17    1
    13    17    18    1
    14    18    19    1
    15    19    20    1
    16    20    21    1
    17    21    22    1
    18    20    23    1
    19    23    24    1
    20     6     7    1
    21     7     8    1
    22     8     9    2
    23     9    10    1
    24     9     1    1
    25     7     3    1
    26    22    17    1
    27    24    17    1
@<TRIPOS>MOLECULE
*****
 24 27 0 0 0
SMALL
GASTEIGER

@<TRIPOS>ATOM
      1 C          61.6795   87.1892   10.3068 C.2     1  UNL1        0.1669
      2 C          62.3509   86.5860   11.5049 C.2     1  UNL1        0.0545
      3 C          63.0769   87.4652   12.4796 C.2     1  UNL1        0.0702
      4 N          63.8273   87.1588   13.7417 N.2     1  UNL1       -0.2475
      5 C          64.3456   88.4517   14.2983 C.2     1  UNL1        0.1013
      6 C          63.9156   89.5572   13.3801 C.2     1  UNL1        0.0818
      7 C          63.1314   88.9475   12.2561 C.3     1  UNL1        0.0947
      8 C          62.4600   89.5506   11.0580 C.2     1  UNL1        0.0169
      9 C          61.7341   88.6714   10.0833 C.2     1  UNL1        0.1703
     10 F          61.0627   89.2745    8.8852 F       1  UNL1       -0.2013
     11 C          61.6507   85.8258    8.0953 C.3     1  UNL1        0.2526
     12 O          60.9535   86.3099    9.3320 O.2     1  UNL1       -0.4691
     13 C          64.2168   91.0161   13.5553 C.2     1  UNL1        0.3394
     14 O          64.0477   91.6607   14.8991 O.2     1  UNL1       -0.2452
     15 O          64.6870   91.8305   12.3866 O.3     1  UNL1       -0.4456
     16 C          66.0290   92.4991   12.4300 C.3     1  UNL1        0.2087
     17 C          66.7097   92.8982   11.1543 C.3     1  UNL1        0.0445
     18 C          66.3112   94.1646   10.4560 C.3     1  UNL1        0.0210
     19 C          66.9919   94.5637    9.1803 C.3     1  UNL1        0.0722
     20 N          68.0711   93.6964    8.6029 N.3     1  UNL1       -0.2727
     21 C          68.4696   92.4301    9.3012 C.3     1  UNL1        0.0722
     22 C          67.7889   92.0310   10.5769 C.3     1  UNL1        0.0210
     23 C          67.7268   93.4363    9.3042 C.3     1  UNL1        0.0722
     24 C          67.1113   93.0755   10.4577 C.3     1  UNL1        0.0210
@<TRIPOS>BOND
     1    11    12    1
     2    12     1    1
     3     1     2    2
     4     2     3    1
     5     3     4    2
     6     4     5    1
     7     5     6    2
     8     6    13    1
     9    13    14    2
    10    13    15    1
    11    15    16    1
    12    16    17    1
    13    17    18    1
    14    18    19    1
    15    19    20    1
    16    20    21    1
    17    21    22    1
    18    20    23    1
    19    23    24    1
    20     6     7    1
    21     7     8    1
    22     8     9    2
    23     9    10    1
    24     9     1    1
    25     7     3    1
    26    22    17    1
    27    24    17    1
@<TRIPOS>MOLECULE
*****
 24 27 0 0 0
SMALL
GASTEIGER

@<TRIPOS>ATOM
      1 C          66.5080   92.8292   13.9347 C.2     1  UNL1        0.1669
      2 C          66.1529   91.5659   14.6615 C.2     1  UNL1        0.0545
      3 C          65.1270   90.6339   14.0881 C.2     1  UNL1        0.0702
      4 N          64.5760   89.3262   14.5740 N.2     1  UNL1       -0.2475
      5 C          63.5647   88.8491   13.5742 C.2     1  UNL1        0.1013
      6 C          63.4906   89.8620   12.4703 C.2     1  UNL1        0.0818
      7 C          64.4562   90.9651   12.7879 C.3     1  UNL1        0.0947
      8 C          64.8113   92.2283   12.0612 C.2     1  UNL1        0.0169
      9 C          65.8372   93.1604   12.6346 C.2     1  UNL1        0.1703
     10 F          66.1923   94.4236   11.9078 F       1  UNL1       -0.2013
     11 C          68.3301   93.3516   15.7115 C.3     1  UNL1        0.2526
     12 O          67.5339   93.7613   14.5081 O.2     1  UNL1       -0.4691
     13 C          62.6063   89.7853   11.2612 C.2     1  UNL1        0.3394
     14 O          63.0267   90.4452    9.9815 O.2     1  UNL1       -0.2452
     15 O          61.3015   89.0486   11.3318 O.3     1  UNL1       -0.4456
     16 C          61.2801   87.5513   11.2455 C.3     1  UNL1        0.2087
     17 C          61.2237   86.8779    9.9064 C.3     1  UNL1        0.0445
     18 C          62.4241   86.1452    9.3843 C.3     1  UNL1        0.0210
     19 C          62.3678   85.4717    8.0452 C.3     1  UNL1        0.0722
     20 N          61.1112   85.5310    7.2281 N.3     1  UNL1       -0.2727
     21 C          59.9109   86.2636    7.7501 C.3     1  UNL1        0.0722
     22 C          59.9672   86.9371    9.0893 C.3     1  UNL1        0.0210
     23 C          61.0943   85.9153    7.9561 C.3     1  UNL1        0.0722
     24 C          61.1452   86.5243    9.1670 C.3     1  UNL1        0.0210
@<TRIPOS>BOND
     1    11    12    1
     2    12     1    1
     3     1     2    2
     4     2     3    1
     5     3     4    2
     6     4     5    1
     7     5     6    2
     8     6    13    1
     9    13    14    2
    10    13    15    1
    11    15    16    1
    12    16    17    1
    13    17    18    1
    14    18    19    1
    15    19    20    1
    16    20    21    1
    17    21    22    1
    18    20    23    1
    19    23    24    1
    20     6     7    1
    21     7     8    1
    22     8     9    2
    23     9    10    1
    24     9     1    1
    25     7     3    1
    26    22    17    1
    27    24    17    1
