@<TRIPOS>MOLECULE
*****
 28 31 0 0 0
SMALL
GASTEIGER

@<TRIPOS>ATOM
      1 C          61.3189   88.9777    9.8212 C.2     1  UNL1        0.2440
      2 O          60.8366   89.5066    8.5030 O.2     1  UNL1       -0.2731
      3 N          62.3388   89.7450   10.6093 N.am    1  UNL1       -0.2747
      4 C          62.8763   91.0412   10.0792 C.3     1  UNL1        0.1149
      5 C          63.8962   91.8084   10.8674 C.3     1  UNL1        0.1121
      6 N          64.3785   91.2796   12.1856 N.pl3   1  UNL1       -0.3071
      7 C          63.8410   89.9834   12.7156 C.3     1  UNL1        0.1121
      8 C          62.8211   89.2161   11.9275 C.3     1  UNL1        0.1149
      9 C          65.3984   92.0468   12.9737 C.2     1  UNL1        0.0295
     10 C          65.6742   93.4841   12.6451 C.2     1  UNL1        0.0120
     11 C          66.6941   94.2514   13.4333 C.2     1  UNL1        0.0216
     12 C          67.4382   93.5812   14.5501 C.2     1  UNL1        0.1008
     13 N          68.4920   94.0787   15.4946 N.2     1  UNL1       -0.1482
     14 N          68.8674   92.9488   16.4069 N.2     1  UNL1       -0.1467
     15 C          68.0457   91.7530   16.0263 C.2     1  UNL1        0.1198
     16 C          67.1624   92.1439   14.8787 C.2     1  UNL1        0.0238
     17 C          66.1425   91.3767   14.0905 C.3     1  UNL1        0.0705
     18 N          59.3883   87.6171   10.9035 N.3     1  UNL1       -0.3116
     19 C          60.7814   87.6815   10.3513 C.3     1  UNL1        0.1514
     20 H          58.9547   88.5383   10.8406 H       1  UNL1        0.1195
     21 H          59.4227   87.3235   11.8797 H       1  UNL1        0.1195
     22 C          61.6372   86.4497   10.3292 C.ar    1  UNL1        0.0005
     23 C          61.8251   85.6446   11.5808 C.ar    1  UNL1       -0.0020
     24 C          62.6808   84.4128   11.5587 C.ar    1  UNL1        0.0064
     25 C          63.3486   83.9862   10.2851 C.ar    1  UNL1        0.0345
     26 BR         64.2043   82.7544   10.2630 Br      1  UNL1       -0.0490
     27 C          63.1606   84.7913    9.0335 C.ar    1  UNL1        0.0064
     28 C          62.3048   86.0231    9.0556 C.ar    1  UNL1       -0.0020
@<TRIPOS>BOND
     1    18    19    1
     2    19     1    1
     3     1     2    2
     4     1     3   am
     5     3     4    1
     6     4     5    1
     7     5     6    1
     8     6     9    1
     9     9    10    2
    10    10    11    1
    11    11    12    2
    12    12    13    1
    13    13    14    2
    14    14    15    1
    15    15    16    2
    16    16    17    1
    17     6     7    1
    18     7     8    1
    19    19    22    1
    20    22    23   ar
    21    23    24   ar
    22    24    25   ar
    23    25    26    1
    24    25    27   ar
    25    27    28   ar
    26     8     3    1
    27    28    22   ar
    28    17     9    1
    29    16    12    1
    30    18    20    1
    31    18    21    1
@<TRIPOS>MOLECULE
*****
 28 31 0 0 0
SMALL
GASTEIGER

@<TRIPOS>ATOM
      1 C          60.6490   88.6095    8.9337 C.2     1  UNL1        0.2440
      2 O          60.1538   89.4879    7.8232 O.2     1  UNL1       -0.2731
      3 N          61.4930   89.1898   10.0295 N.am    1  UNL1       -0.2747
      4 C          61.8417   90.6487   10.0149 C.3     1  UNL1        0.1149
      5 C          62.6856   91.2290   11.1109 C.3     1  UNL1        0.1121
      6 N          63.1808   90.3506   12.2213 N.pl3   1  UNL1       -0.3071
      7 C          62.8321   88.8918   12.2358 C.3     1  UNL1        0.1121
      8 C          61.9882   88.3114   11.1400 C.3     1  UNL1        0.1149
      9 C          64.0248   90.9309   13.3172 C.2     1  UNL1        0.0295
     10 C          63.6747   90.6692   14.7520 C.2     1  UNL1        0.0120
     11 C          64.5186   91.2496   15.8479 C.2     1  UNL1        0.0216
     12 C          65.7127   92.0917   15.5089 C.2     1  UNL1        0.1008
     13 N          66.7236   92.7918   16.3679 N.2     1  UNL1       -0.1482
     14 N          67.6985   93.4863   15.4639 N.2     1  UNL1       -0.1467
     15 C          67.2902   93.2153   14.0462 C.2     1  UNL1        0.1198
     16 C          66.0629   92.3534   14.0740 C.2     1  UNL1        0.0238
     17 C          65.2189   91.7730   12.9781 C.3     1  UNL1        0.0705
     18 N          58.9215   86.7052    8.5607 N.3     1  UNL1       -0.3116
     19 C          60.3004   87.1506    8.9483 C.3     1  UNL1        0.1514
     20 H          58.3567   87.5193    8.3186 H       1  UNL1        0.1195
     21 H          58.4907   86.2130    9.3434 H       1  UNL1        0.1195
     22 C          61.3307   86.1373    9.3504 C.ar    1  UNL1        0.0005
     23 C          61.3598   85.6147   10.7561 C.ar    1  UNL1       -0.0020
     24 C          62.3900   84.6013   11.1584 C.ar    1  UNL1        0.0064
     25 C          63.3911   84.1106   10.1549 C.ar    1  UNL1        0.0345
     26 BR         64.4214   83.0973   10.5571 Br      1  UNL1       -0.0490
     27 C          63.3620   84.6333    8.7492 C.ar    1  UNL1        0.0064
     28 C          62.3317   85.6466    8.3470 C.ar    1  UNL1       -0.0020
@<TRIPOS>BOND
     1    18    19    1
     2    19     1    1
     3     1     2    2
     4     1     3   am
     5     3     4    1
     6     4     5    1
     7     5     6    1
     8     6     9    1
     9     9    10    2
    10    10    11    1
    11    11    12    2
    12    12    13    1
    13    13    14    2
    14    14    15    1
    15    15    16    2
    16    16    17    1
    17     6     7    1
    18     7     8    1
    19    19    22    1
    20    22    23   ar
    21    23    24   ar
    22    24    25   ar
    23    25    26    1
    24    25    27   ar
    25    27    28   ar
    26     8     3    1
    27    28    22   ar
    28    17     9    1
    29    16    12    1
    30    18    20    1
    31    18    21    1
@<TRIPOS>MOLECULE
*****
 28 31 0 0 0
SMALL
GASTEIGER

@<TRIPOS>ATOM
      1 C          63.7646   90.5647   13.7740 C.2     1  UNL1        0.2440
      2 O          63.3435   91.5457   12.7202 O.2     1  UNL1       -0.2731
      3 N          63.6490   89.0916   13.5163 N.am    1  UNL1       -0.2747
      4 C          63.1123   88.5994   12.2050 C.3     1  UNL1        0.1149
      5 C          62.9967   87.1261   11.9474 C.3     1  UNL1        0.1121
      6 N          63.4177   86.1452   13.0011 N.pl3   1  UNL1       -0.3071
      7 C          63.9545   86.6374   14.3124 C.3     1  UNL1        0.1121
      8 C          64.0701   88.1106   14.5701 C.3     1  UNL1        0.1149
      9 C          63.3021   84.6720   12.7435 C.2     1  UNL1        0.0295
     10 C          63.9282   84.0733   11.5190 C.2     1  UNL1        0.0120
     11 C          63.8126   82.6000   11.2614 C.2     1  UNL1        0.0216
     12 C          63.0709   81.7256   12.2285 C.2     1  UNL1        0.1008
     13 N          62.7936   80.2515   12.2396 N.2     1  UNL1       -0.1482
     14 N          61.9962   79.9392   13.4711 N.2     1  UNL1       -0.1467
     15 C          61.7806   81.2203   14.2210 C.2     1  UNL1        0.1198
     16 C          62.4448   82.3243   13.4530 C.2     1  UNL1        0.0238
     17 C          62.5604   83.7975   13.7105 C.3     1  UNL1        0.0705
     18 N          63.4580   90.9663   16.3224 N.3     1  UNL1       -0.3116
     19 C          64.3014   91.0569   15.0853 C.3     1  UNL1        0.1514
     20 H          62.5573   90.5479   16.0899 H       1  UNL1        0.1195
     21 H          63.3106   91.9013   16.7026 H       1  UNL1        0.1195
     22 C          65.6816   91.6396   15.1595 C.ar    1  UNL1        0.0005
     23 C          66.0886   92.4543   16.3514 C.ar    1  UNL1       -0.0020
     24 C          67.4688   93.0371   16.4256 C.ar    1  UNL1        0.0064
     25 C          68.4419   92.8051   15.3080 C.ar    1  UNL1        0.0345
     26 BR         69.8221   93.3879   15.3822 Br      1  UNL1       -0.0490
     27 C          68.0350   91.9905   14.1161 C.ar    1  UNL1        0.0064
     28 C          66.6547   91.4077   14.0419 C.ar    1  UNL1       -0.0020
@<TRIPOS>BOND
     1    18    19    1
     2    19     1    1
     3     1     2    2
     4     1     3   am
     5     3     4    1
     6     4     5    1
     7     5     6    1
     8     6     9    1
     9     9    10    2
    10    10    11    1
    11    11    12    2
    12    12    13    1
    13    13    14    2
    14    14    15    1
    15    15    16    2
    16    16    17    1
    17     6     7    1
    18     7     8    1
    19    19    22    1
    20    22    23   ar
    21    23    24   ar
    22    24    25   ar
    23    25    26    1
    24    25    27   ar
    25    27    28   ar
    26     8     3    1
    27    28    22   ar
    28    17     9    1
    29    16    12    1
    30    18    20    1
    31    18    21    1
@<TRIPOS>MOLECULE
*****
 28 31 0 0 0
SMALL
GASTEIGER

@<TRIPOS>ATOM
      1 C          65.5511   91.5557   13.9547 C.2     1  UNL1        0.2440
      2 O          65.9839   90.8385   15.1990 O.2     1  UNL1       -0.2731
      3 N          64.6099   90.8906   12.9947 N.am    1  UNL1       -0.2747
      4 C          64.1014   89.5084   13.2790 C.3     1  UNL1        0.1149
      5 C          63.1601   88.8433   12.3189 C.3     1  UNL1        0.1121
      6 N          62.7273   89.5604   11.0746 N.pl3   1  UNL1       -0.3071
      7 C          63.2358   90.9427   10.7903 C.3     1  UNL1        0.1121
      8 C          64.1771   91.6078   11.7503 C.3     1  UNL1        0.1149
      9 C          61.7860   88.8954   10.1145 C.2     1  UNL1        0.0295
     10 C          60.5370   89.6018    9.6779 C.2     1  UNL1        0.0120
     11 C          59.5957   88.9368    8.7178 C.2     1  UNL1        0.0216
     12 C          59.9036   87.5652    8.1944 C.2     1  UNL1        0.1008
     13 N          59.1698   86.6652    7.2449 N.2     1  UNL1       -0.1482
     14 N          59.9654   85.4025    7.0947 N.2     1  UNL1       -0.1467
     15 C          61.1909   85.5221    7.9514 C.2     1  UNL1        0.1198
     16 C          61.1527   86.8587    8.6310 C.2     1  UNL1        0.0238
     17 C          62.0939   87.5238    9.5911 C.3     1  UNL1        0.0705
     18 N          66.1247   93.9543   14.7715 N.3     1  UNL1       -0.3116
     19 C          66.0596   92.9379   13.6704 C.3     1  UNL1        0.1514
     20 H          65.7872   93.5377   15.6392 H       1  UNL1        0.1195
     21 H          65.5416   94.7555   14.5297 H       1  UNL1        0.1195
     22 C          66.5029   93.3037   12.2848 C.ar    1  UNL1        0.0005
     23 C          66.1554   94.6477   11.7165 C.ar    1  UNL1       -0.0020
     24 C          66.5986   95.0135   10.3310 C.ar    1  UNL1        0.0064
     25 C          67.3894   94.0353    9.5137 C.ar    1  UNL1        0.0345
     26 BR         67.8327   94.4012    8.1282 Br      1  UNL1       -0.0490
     27 C          67.7369   92.6914   10.0820 C.ar    1  UNL1        0.0064
     28 C          67.2936   92.3256   11.4676 C.ar    1  UNL1       -0.0020
@<TRIPOS>BOND
     1    18    19    1
     2    19     1    1
     3     1     2    2
     4     1     3   am
     5     3     4    1
     6     4     5    1
     7     5     6    1
     8     6     9    1
     9     9    10    2
    10    10    11    1
    11    11    12    2
    12    12    13    1
    13    13    14    2
    14    14    15    1
    15    15    16    2
    16    16    17    1
    17     6     7    1
    18     7     8    1
    19    19    22    1
    20    22    23   ar
    21    23    24   ar
    22    24    25   ar
    23    25    26    1
    24    25    27   ar
    25    27    28   ar
    26     8     3    1
    27    28    22   ar
    28    17     9    1
    29    16    12    1
    30    18    20    1
    31    18    21    1
@<TRIPOS>MOLECULE
*****
 28 31 0 0 0
SMALL
GASTEIGER

@<TRIPOS>ATOM
      1 C          61.3907   88.9236   10.2535 C.2     1  UNL1        0.2440
      2 O          60.6895   89.7611    9.2254 O.2     1  UNL1       -0.2731
      3 N          62.3696   89.5578   11.1967 N.am    1  UNL1       -0.2747
      4 C          62.6472   91.0294   11.1118 C.3     1  UNL1        0.1149
      5 C          63.6262   91.6635   12.0551 C.3     1  UNL1        0.1121
      6 N          64.3273   90.8260   13.0831 N.pl3   1  UNL1       -0.3071
      7 C          64.0497   89.3544   13.1680 C.3     1  UNL1        0.1121
      8 C          63.0708   88.7203   12.2248 C.3     1  UNL1        0.1149
      9 C          65.3063   91.4602   14.0263 C.2     1  UNL1        0.0295
     10 C          64.8743   91.8411   15.4113 C.2     1  UNL1        0.0120
     11 C          65.8533   92.4752   16.3545 C.2     1  UNL1        0.0216
     12 C          67.2642   92.7283   15.9127 C.2     1  UNL1        0.1008
     13 N          68.4430   93.3332   16.6160 N.2     1  UNL1       -0.1482
     14 N          69.6034   93.3260   15.6656 N.2     1  UNL1       -0.1467
     15 C          69.1419   92.7167   14.3750 C.2     1  UNL1        0.1198
     16 C          67.6962   92.3473   14.5277 C.2     1  UNL1        0.0238
     17 C          66.7172   91.7132   13.5845 C.3     1  UNL1        0.0705
     18 N          60.6380   86.8516   11.6282 N.3     1  UNL1       -0.3116
     19 C          61.1130   87.4520   10.3384 C.3     1  UNL1        0.1514
     20 H          60.5601   87.5827   12.3352 H       1  UNL1        0.1195
     21 H          61.3050   86.1460   11.9408 H       1  UNL1        0.1195
     22 C          61.3103   86.5808    9.1333 C.ar    1  UNL1        0.0005
     23 C          60.1570   86.2945    8.2180 C.ar    1  UNL1       -0.0020
     24 C          60.3542   85.4234    7.0129 C.ar    1  UNL1        0.0064
     25 C          61.7048   84.8386    6.7231 C.ar    1  UNL1        0.0345
     26 BR         61.9020   83.9675    5.5181 Br      1  UNL1       -0.0490
     27 C          62.8581   85.1249    7.6385 C.ar    1  UNL1        0.0064
     28 C          62.6608   85.9961    8.8436 C.ar    1  UNL1       -0.0020
@<TRIPOS>BOND
     1    18    19    1
     2    19     1    1
     3     1     2    2
     4     1     3   am
     5     3     4    1
     6     4     5    1
     7     5     6    1
     8     6     9    1
     9     9    10    2
    10    10    11    1
    11    11    12    2
    12    12    13    1
    13    13    14    2
    14    14    15    1
    15    15    16    2
    16    16    17    1
    17     6     7    1
    18     7     8    1
    19    19    22    1
    20    22    23   ar
    21    23    24   ar
    22    24    25   ar
    23    25    26    1
    24    25    27   ar
    25    27    28   ar
    26     8     3    1
    27    28    22   ar
    28    17     9    1
    29    16    12    1
    30    18    20    1
    31    18    21    1
@<TRIPOS>MOLECULE
*****
 28 31 0 0 0
SMALL
GASTEIGER

@<TRIPOS>ATOM
      1 C          62.3993   90.1340   12.0037 C.2     1  UNL1        0.2440
      2 O          61.3488   90.8316   11.1914 O.2     1  UNL1       -0.2731
      3 N          62.4826   88.6364   11.9948 N.am    1  UNL1       -0.2747
      4 C          61.5155   87.8363   11.1735 C.3     1  UNL1        0.1149
      5 C          61.5989   86.3386   11.1645 C.3     1  UNL1        0.1121
      6 N          62.6493   85.6411   11.9768 N.pl3   1  UNL1       -0.3071
      7 C          63.6164   86.4412   12.7981 C.3     1  UNL1        0.1121
      8 C          63.5331   87.9388   12.8071 C.3     1  UNL1        0.1149
      9 C          62.7327   84.1434   11.9679 C.2     1  UNL1        0.0295
     10 C          63.3659   83.4344   10.8077 C.2     1  UNL1        0.0120
     11 C          63.4493   81.9367   10.7988 C.2     1  UNL1        0.0216
     12 C          62.8995   81.1481   11.9502 C.2     1  UNL1        0.1008
     13 N          62.8390   79.6736   12.2190 N.2     1  UNL1       -0.1482
     14 N          62.1685   79.4714   13.5454 N.2     1  UNL1       -0.1467
     15 C          61.8145   80.8209   14.0964 C.2     1  UNL1        0.1198
     16 C          62.2663   81.8572   13.1105 C.2     1  UNL1        0.0238
     17 C          62.1829   83.3548   13.1193 C.3     1  UNL1        0.0705
     18 N          63.2103   90.9990   14.3154 N.3     1  UNL1       -0.3116
     19 C          63.3664   90.9341   12.8251 C.3     1  UNL1        0.1514
     20 H          62.4011   90.4455   14.5969 H       1  UNL1        0.1195
     21 H          63.0749   91.9688   14.6012 H       1  UNL1        0.1195
     22 C          64.4897   91.6693   12.1558 C.ar    1  UNL1        0.0005
     23 C          65.7170   92.0351   12.9368 C.ar    1  UNL1       -0.0020
     24 C          66.8403   92.7702   12.2677 C.ar    1  UNL1        0.0064
     25 C          66.7363   93.1395   10.8176 C.ar    1  UNL1        0.0345
     26 BR         67.8596   93.8747   10.1484 Br      1  UNL1       -0.0490
     27 C          65.5090   92.7737   10.0366 C.ar    1  UNL1        0.0064
     28 C          64.3857   92.0385   10.7058 C.ar    1  UNL1       -0.0020
@<TRIPOS>BOND
     1    18    19    1
     2    19     1    1
     3     1     2    2
     4     1     3   am
     5     3     4    1
     6     4     5    1
     7     5     6    1
     8     6     9    1
     9     9    10    2
    10    10    11    1
    11    11    12    2
    12    12    13    1
    13    13    14    2
    14    14    15    1
    15    15    16    2
    16    16    17    1
    17     6     7    1
    18     7     8    1
    19    19    22    1
    20    22    23   ar
    21    23    24   ar
    22    24    25   ar
    23    25    26    1
    24    25    27   ar
    25    27    28   ar
    26     8     3    1
    27    28    22   ar
    28    17     9    1
    29    16    12    1
    30    18    20    1
    31    18    21    1
@<TRIPOS>MOLECULE
*****
 28 31 0 0 0
SMALL
GASTEIGER

@<TRIPOS>ATOM
      1 C          64.1289   89.6855   13.7801 C.2     1  UNL1        0.2440
      2 O          64.9277   90.1812   14.9489 O.2     1  UNL1       -0.2731
      3 N          63.8927   88.2149   13.6027 N.am    1  UNL1       -0.2747
      4 C          64.4554   87.2399   14.5941 C.3     1  UNL1        0.1149
      5 C          64.2192   85.7693   14.4166 C.3     1  UNL1        0.1121
      6 N          63.4204   85.2736   13.2479 N.pl3   1  UNL1       -0.3071
      7 C          62.8577   86.2485   12.2565 C.3     1  UNL1        0.1121
      8 C          63.0938   87.7192   12.4339 C.3     1  UNL1        0.1149
      9 C          63.1842   83.8029   13.0704 C.2     1  UNL1        0.0295
     10 C          62.7810   82.9610   14.2444 C.2     1  UNL1        0.0120
     11 C          62.5448   81.4903   14.0670 C.2     1  UNL1        0.0216
     12 C          62.7118   80.8617   12.7153 C.2     1  UNL1        0.1008
     13 N          62.5492   79.4489   12.2385 N.2     1  UNL1       -0.1482
     14 N          62.8519   79.4177   10.7697 N.2     1  UNL1       -0.1467
     15 C          63.2016   80.8112   10.3387 C.2     1  UNL1        0.1198
     16 C          63.1150   81.7037   11.5412 C.2     1  UNL1        0.0238
     17 C          63.3512   83.1743   11.7187 C.3     1  UNL1        0.0705
     18 N          62.1173   90.5899   12.4070 N.3     1  UNL1       -0.3116
     19 C          63.5661   90.6604   12.7887 C.3     1  UNL1        0.1514
     20 H          61.6692   89.8261   12.9131 H       1  UNL1        0.1195
     21 H          62.0377   90.4257   11.4035 H       1  UNL1        0.1195
     22 C          64.4524   91.7058   12.1790 C.ar    1  UNL1        0.0005
     23 C          64.3214   92.0442   10.7236 C.ar    1  UNL1       -0.0020
     24 C          65.2076   93.0896   10.1139 C.ar    1  UNL1        0.0064
     25 C          66.2249   93.7966   10.9596 C.ar    1  UNL1        0.0345
     26 BR         67.1111   94.8420   10.3499 Br      1  UNL1       -0.0490
     27 C          66.3559   93.4583   12.4151 C.ar    1  UNL1        0.0064
     28 C          65.4696   92.4129   13.0247 C.ar    1  UNL1       -0.0020
@<TRIPOS>BOND
     1    18    19    1
     2    19     1    1
     3     1     2    2
     4     1     3   am
     5     3     4    1
     6     4     5    1
     7     5     6    1
     8     6     9    1
     9     9    10    2
    10    10    11    1
    11    11    12    2
    12    12    13    1
    13    13    14    2
    14    14    15    1
    15    15    16    2
    16    16    17    1
    17     6     7    1
    18     7     8    1
    19    19    22    1
    20    22    23   ar
    21    23    24   ar
    22    24    25   ar
    23    25    26    1
    24    25    27   ar
    25    27    28   ar
    26     8     3    1
    27    28    22   ar
    28    17     9    1
    29    16    12    1
    30    18    20    1
    31    18    21    1
@<TRIPOS>MOLECULE
*****
 28 31 0 0 0
SMALL
GASTEIGER

@<TRIPOS>ATOM
      1 C          63.7507   89.7660   15.8074 C.2     1  UNL1        0.2440
      2 O          63.4837   90.0872   17.2481 O.2     1  UNL1       -0.2731
      3 N          63.5978   88.3584   15.3120 N.am    1  UNL1       -0.2747
      4 C          63.1778   87.2721   16.2572 C.3     1  UNL1        0.1149
      5 C          63.0249   85.8645   15.7617 C.3     1  UNL1        0.1121
      6 N          63.2919   85.5434   14.3211 N.pl3   1  UNL1       -0.3071
      7 C          63.7119   86.6297   13.3759 C.3     1  UNL1        0.1121
      8 C          63.8648   88.0372   13.8713 C.3     1  UNL1        0.1149
      9 C          63.1390   84.1358   13.8256 C.2     1  UNL1        0.0295
     10 C          62.7144   83.0503   14.7696 C.2     1  UNL1        0.0120
     11 C          62.5615   81.6428   14.2741 C.2     1  UNL1        0.0216
     12 C          62.8333   81.3208   12.8345 C.2     1  UNL1        0.1008
     13 N          62.7673   80.0358   12.0636 N.2     1  UNL1       -0.1482
     14 N          63.1512   80.3271   10.6432 N.2     1  UNL1       -0.1467
     15 C          63.4544   81.7922   10.5361 C.2     1  UNL1        0.1198
     16 C          63.2579   82.4064   11.8904 C.2     1  UNL1        0.0238
     17 C          63.4108   83.8139   12.3860 C.3     1  UNL1        0.0705
     18 N          63.2465   91.2905   13.7651 N.3     1  UNL1       -0.3116
     19 C          64.1707   90.8523   14.8622 C.3     1  UNL1        0.1514
     20 H          62.3840   90.7479   13.8100 H       1  UNL1        0.1195
     21 H          63.6959   91.1405   12.8618 H       1  UNL1        0.1195
     22 C          65.5149   91.5004   15.0142 C.ar    1  UNL1        0.0005
     23 C          65.8075   92.3472   16.2172 C.ar    1  UNL1       -0.0020
     24 C          67.1517   92.9952   16.3693 C.ar    1  UNL1        0.0064
     25 C          68.2033   92.7966   15.3182 C.ar    1  UNL1        0.0345
     26 BR         69.5475   93.4447   15.4703 Br      1  UNL1       -0.0490
     27 C          67.9107   91.9498   14.1152 C.ar    1  UNL1        0.0064
     28 C          66.5665   91.3017   13.9632 C.ar    1  UNL1       -0.0020
@<TRIPOS>BOND
     1    18    19    1
     2    19     1    1
     3     1     2    2
     4     1     3   am
     5     3     4    1
     6     4     5    1
     7     5     6    1
     8     6     9    1
     9     9    10    2
    10    10    11    1
    11    11    12    2
    12    12    13    1
    13    13    14    2
    14    14    15    1
    15    15    16    2
    16    16    17    1
    17     6     7    1
    18     7     8    1
    19    19    22    1
    20    22    23   ar
    21    23    24   ar
    22    24    25   ar
    23    25    26    1
    24    25    27   ar
    25    27    28   ar
    26     8     3    1
    27    28    22   ar
    28    17     9    1
    29    16    12    1
    30    18    20    1
    31    18    21    1
@<TRIPOS>MOLECULE
*****
 28 31 0 0 0
SMALL
GASTEIGER

@<TRIPOS>ATOM
      1 C          44.7718   71.8187   18.0886 C.2     1  UNL1        0.2440
      2 O          43.6381   71.1031   18.7614 O.2     1  UNL1       -0.2731
      3 N          44.9509   73.2946   18.2881 N.am    1  UNL1       -0.2747
      4 C          43.9964   74.0547   19.1605 C.3     1  UNL1        0.1149
      5 C          44.1757   75.5306   19.3600 C.3     1  UNL1        0.1121
      6 N          45.3092   76.2462   18.6872 N.pl3   1  UNL1       -0.3071
      7 C          46.2637   75.4861   17.8148 C.3     1  UNL1        0.1121
      8 C          46.0845   74.0102   17.6152 C.3     1  UNL1        0.1149
      9 C          45.4884   77.7221   18.8867 C.2     1  UNL1        0.0295
     10 C          46.7459   78.2470   19.5135 C.2     1  UNL1        0.0120
     11 C          46.9251   79.7229   19.7130 C.2     1  UNL1        0.0216
     12 C          45.8467   80.6738   19.2856 C.2     1  UNL1        0.1008
     13 N          45.7416   82.1685   19.3542 N.2     1  UNL1       -0.1482
     14 N          44.4190   82.5674   18.7697 N.2     1  UNL1       -0.1467
     15 C          43.7067   81.3192   18.3399 C.2     1  UNL1        0.1198
     16 C          44.5891   80.1489   18.6587 C.2     1  UNL1        0.0238
     17 C          44.4100   78.6730   18.4593 C.3     1  UNL1        0.0705
     18 N          47.0817   70.6828   17.7370 N.3     1  UNL1       -0.3116
     19 C          45.7262   71.0586   17.2162 C.3     1  UNL1        0.1514
     20 H          47.1841   71.0213   18.6938 H       1  UNL1        0.1195
     21 H          47.8007   71.1038   17.1487 H       1  UNL1        0.1195
     22 C          45.3251   70.6742   15.8228 C.ar    1  UNL1        0.0005
     23 C          44.0349   71.1787   15.2477 C.ar    1  UNL1       -0.0020
     24 C          43.6337   70.7943   13.8544 C.ar    1  UNL1        0.0064
     25 C          44.5228   69.9055   13.0362 C.ar    1  UNL1        0.0345
     26 BR         44.1216   69.5212   11.6429 Br      1  UNL1       -0.0490
     27 C          45.8130   69.4010   13.6112 C.ar    1  UNL1        0.0064
     28 C          46.2141   69.7854   15.0046 C.ar    1  UNL1       -0.0020
@<TRIPOS>BOND
     1    18    19    1
     2    19     1    1
     3     1     2    2
     4     1     3   am
     5     3     4    1
     6     4     5    1
     7     5     6    1
     8     6     9    1
     9     9    10    2
    10    10    11    1
    11    11    12    2
    12    12    13    1
    13    13    14    2
    14    14    15    1
    15    15    16    2
    16    16    17    1
    17     6     7    1
    18     7     8    1
    19    19    22    1
    20    22    23   ar
    21    23    24   ar
    22    24    25   ar
    23    25    26    1
    24    25    27   ar
    25    27    28   ar
    26     8     3    1
    27    28    22   ar
    28    17     9    1
    29    16    12    1
    30    18    20    1
    31    18    21    1
