@<TRIPOS>MOLECULE
*****
 32 35 0 0 0
SMALL
GASTEIGER

@<TRIPOS>ATOM
      1 C          59.0114   88.3127    7.2321 C.3     1  UNL1        0.0518
      2 C          59.9716   88.3335    8.3843 C.ar    1  UNL1        0.0563
      3 N          60.3051   89.6309    9.0592 N.ar    1  UNL1       -0.2524
      4 C          61.2653   89.6518   10.2114 C.ar    1  UNL1        0.0830
      5 C          61.8920   88.3753   10.6887 C.ar    1  UNL1        0.0686
      6 C          61.5585   87.0779   10.0138 C.ar    1  UNL1        0.0048
      7 C          60.5982   87.0571    8.8616 C.ar    1  UNL1        0.0072
      8 C          62.7960   88.7047   11.8395 C.2     1  UNL1        0.2509
      9 O          63.6228   87.7259   12.6194 O.2     1  UNL1       -0.2698
     10 N          62.7280   90.1848   12.0734 N.am    1  UNL1       -0.2620
     11 C          61.7820   90.7702   11.0672 C.3     1  UNL1        0.1401
     12 C          62.1851   85.8014   10.4911 C.ar    1  UNL1        0.0106
     13 C          61.8519   85.2653   11.8518 C.ar    1  UNL1        0.0017
     14 C          62.4785   83.9887   12.3291 C.ar    1  UNL1        0.0114
     15 C          63.4383   83.2484   11.4457 C.ar    1  UNL1        0.0585
     16 CL         64.0649   81.9718   11.9230 Cl      1  UNL1       -0.0822
     17 C          63.7715   83.7844   10.0850 C.ar    1  UNL1        0.0228
     18 C          63.1449   85.0610    9.6076 C.ar    1  UNL1        0.0585
     19 CL         63.4782   85.5970    8.2469 Cl      1  UNL1       -0.0822
     20 C          60.2647   85.7596    8.1866 C.3     1  UNL1        0.0934
     21 N          60.7951   85.4704    6.8137 N.3     1  UNL1       -0.3174
     22 H          60.3824   86.1213    6.1456 H       1  UNL1        0.1192
     23 H          60.5543   84.5148    6.5505 H       1  UNL1        0.1192
     24 C          63.4749   90.9459   13.1283 C.3     1  UNL1        0.1798
     25 C          64.7479   91.6585   12.7793 C.2     1  UNL1        0.2460
     26 O          65.1029   91.8993   11.3420 O.2     1  UNL1       -0.2730
     27 N          65.6659   92.1303   13.8678 N.am    1  UNL1       -0.2782
     28 C          66.9388   92.8429   13.5188 C.3     1  UNL1        0.0934
     29 C          67.8569   93.3147   14.6072 C.3     1  UNL1        0.0216
     30 C          67.5020   93.0740   16.0446 C.3     1  UNL1        0.0035
     31 C          66.2290   92.3614   16.3936 C.3     1  UNL1        0.0216
     32 C          65.3110   91.8896   15.3052 C.3     1  UNL1        0.0934
@<TRIPOS>BOND
     1     1     2    1
     2     2     3   ar
     3     3     4   ar
     4     4     5   ar
     5     5     6   ar
     6     6    12    1
     7    12    13   ar
     8    13    14   ar
     9    14    15   ar
    10    15    16    1
    11    15    17   ar
    12    17    18   ar
    13    18    19    1
    14     6     7   ar
    15     7    20    1
    16    20    21    1
    17     5     8    1
    18     8     9    2
    19     8    10   am
    20    10    24    1
    21    24    25    1
    22    25    26    2
    23    25    27   am
    24    27    28    1
    25    28    29    1
    26    29    30    1
    27    30    31    1
    28    31    32    1
    29    10    11    1
    30     7     2   ar
    31    32    27    1
    32    11     4    1
    33    18    12   ar
    34    21    22    1
    35    21    23    1
@<TRIPOS>MOLECULE
*****
 32 35 0 0 0
SMALL
GASTEIGER

@<TRIPOS>ATOM
      1 C          64.2861   92.2141   12.8079 C.3     1  UNL1        0.0518
      2 C          63.9879   90.7442   12.8333 C.ar    1  UNL1        0.0563
      3 N          64.5728   89.8788   13.9098 N.ar    1  UNL1       -0.2524
      4 C          64.2747   88.4089   13.9353 C.ar    1  UNL1        0.0830
      5 C          63.3917   87.8045   12.8841 C.ar    1  UNL1        0.0686
      6 C          62.8068   88.6698   11.8075 C.ar    1  UNL1        0.0048
      7 C          63.1050   90.1397   11.7821 C.ar    1  UNL1        0.0072
      8 C          63.2763   86.3354   13.1643 C.2     1  UNL1        0.2509
      9 O          62.4877   85.3439   12.3612 O.2     1  UNL1       -0.2698
     10 N          64.0879   86.0320   14.3887 N.am    1  UNL1       -0.2620
     11 C          64.7050   87.3135   14.8652 C.3     1  UNL1        0.1401
     12 C          61.9238   88.0654   10.7562 C.ar    1  UNL1        0.0106
     13 C          62.5279   87.2778    9.6316 C.ar    1  UNL1        0.0017
     14 C          61.6450   86.6734    8.5804 C.ar    1  UNL1        0.0114
     15 C          60.1581   86.8566    8.6538 C.ar    1  UNL1        0.0585
     16 CL         59.2752   86.2522    7.6025 Cl      1  UNL1       -0.0822
     17 C          59.5540   87.6442    9.7784 C.ar    1  UNL1        0.0228
     18 C          60.4369   88.2487   10.8297 C.ar    1  UNL1        0.0585
     19 CL         59.8329   89.0363   11.9543 Cl      1  UNL1       -0.0822
     20 C          62.5201   91.0052   10.7055 C.3     1  UNL1        0.0934
     21 N          63.4191   91.6628    9.7008 N.3     1  UNL1       -0.3174
     22 H          64.0087   92.3499   10.1706 H       1  UNL1        0.1192
     23 H          62.8530   92.1288    8.9917 H       1  UNL1        0.1192
     24 C          64.2535   84.6837   15.0249 C.3     1  UNL1        0.1798
     25 C          63.0640   83.7873   15.2032 C.2     1  UNL1        0.2460
     26 O          62.0514   84.0877   16.2681 O.2     1  UNL1       -0.2730
     27 N          62.8873   82.5905   14.3163 N.am    1  UNL1       -0.2782
     28 C          61.6979   81.6942   14.4945 C.3     1  UNL1        0.0934
     29 C          61.5211   80.4973   13.6077 C.3     1  UNL1        0.0216
     30 C          62.5338   80.1969   12.5427 C.3     1  UNL1        0.0035
     31 C          63.7232   81.0933   12.3645 C.3     1  UNL1        0.0216
     32 C          63.9000   82.2901   13.2513 C.3     1  UNL1        0.0934
@<TRIPOS>BOND
     1     1     2    1
     2     2     3   ar
     3     3     4   ar
     4     4     5   ar
     5     5     6   ar
     6     6    12    1
     7    12    13   ar
     8    13    14   ar
     9    14    15   ar
    10    15    16    1
    11    15    17   ar
    12    17    18   ar
    13    18    19    1
    14     6     7   ar
    15     7    20    1
    16    20    21    1
    17     5     8    1
    18     8     9    2
    19     8    10   am
    20    10    24    1
    21    24    25    1
    22    25    26    2
    23    25    27   am
    24    27    28    1
    25    28    29    1
    26    29    30    1
    27    30    31    1
    28    31    32    1
    29    10    11    1
    30     7     2   ar
    31    32    27    1
    32    11     4    1
    33    18    12   ar
    34    21    22    1
    35    21    23    1
@<TRIPOS>MOLECULE
*****
 32 35 0 0 0
SMALL
GASTEIGER

@<TRIPOS>ATOM
      1 C          66.7269   92.0662   16.6653 C.3     1  UNL1        0.0518
      2 C          66.0305   91.9613   15.3408 C.ar    1  UNL1        0.0563
      3 N          64.8530   91.0456   15.1830 N.ar    1  UNL1       -0.2524
      4 C          64.1566   90.9408   13.8586 C.ar    1  UNL1        0.0830
      5 C          64.6378   91.7516   12.6920 C.ar    1  UNL1        0.0686
      6 C          65.8153   92.6673   12.8497 C.ar    1  UNL1        0.0048
      7 C          66.5117   92.7721   14.1742 C.ar    1  UNL1        0.0072
      8 C          63.7576   91.4418   11.5176 C.2     1  UNL1        0.2509
      9 O          63.8809   92.0308   10.1436 O.2     1  UNL1       -0.2698
     10 N          62.7324   90.4395   11.9584 N.am    1  UNL1       -0.2620
     11 C          62.9790   90.1298   13.4053 C.3     1  UNL1        0.1401
     12 C          66.2966   93.4781   11.6831 C.ar    1  UNL1        0.0106
     13 C          65.7020   94.8283   11.4121 C.ar    1  UNL1        0.0017
     14 C          66.1832   95.6393   10.2455 C.ar    1  UNL1        0.0114
     15 C          67.2589   95.0999    9.3500 C.ar    1  UNL1        0.0585
     16 CL         67.7401   95.9108    8.1834 Cl      1  UNL1       -0.0822
     17 C          67.8535   93.7497    9.6211 C.ar    1  UNL1        0.0228
     18 C          67.3723   92.9388   10.7876 C.ar    1  UNL1        0.0585
     19 CL         67.9668   91.5886   11.0587 Cl      1  UNL1       -0.0822
     20 C          67.6893   93.6879   14.3320 C.3     1  UNL1        0.0934
     21 N          69.0425   93.1221   14.6464 N.3     1  UNL1       -0.3174
     22 H          69.0277   92.7015   15.5755 H       1  UNL1        0.1192
     23 H          69.7371   93.8687   14.6222 H       1  UNL1        0.1192
     24 C          61.6505   89.8502   11.1027 C.3     1  UNL1        0.1798
     25 C          61.6924   88.3963   10.7361 C.2     1  UNL1        0.2460
     26 O          62.5246   87.4434   11.5418 O.2     1  UNL1       -0.2730
     27 N          60.9020   87.8954    9.5638 N.am    1  UNL1       -0.2782
     28 C          60.9440   86.4415    9.1972 C.3     1  UNL1        0.0934
     29 C          60.1536   85.9405    8.0249 C.3     1  UNL1        0.0216
     30 C          59.3213   86.8934    7.2191 C.3     1  UNL1        0.0035
     31 C          59.2794   88.3473    7.5856 C.3     1  UNL1        0.0216
     32 C          60.0697   88.8483    8.7580 C.3     1  UNL1        0.0934
@<TRIPOS>BOND
     1     1     2    1
     2     2     3   ar
     3     3     4   ar
     4     4     5   ar
     5     5     6   ar
     6     6    12    1
     7    12    13   ar
     8    13    14   ar
     9    14    15   ar
    10    15    16    1
    11    15    17   ar
    12    17    18   ar
    13    18    19    1
    14     6     7   ar
    15     7    20    1
    16    20    21    1
    17     5     8    1
    18     8     9    2
    19     8    10   am
    20    10    24    1
    21    24    25    1
    22    25    26    2
    23    25    27   am
    24    27    28    1
    25    28    29    1
    26    29    30    1
    27    30    31    1
    28    31    32    1
    29    10    11    1
    30     7     2   ar
    31    32    27    1
    32    11     4    1
    33    18    12   ar
    34    21    22    1
    35    21    23    1
@<TRIPOS>MOLECULE
*****
 32 35 0 0 0
SMALL
GASTEIGER

@<TRIPOS>ATOM
      1 C          59.5243   89.0372    7.7262 C.3     1  UNL1        0.0518
      2 C          60.4679   88.7375    8.8531 C.ar    1  UNL1        0.0563
      3 N          60.9650   89.8479    9.7305 N.ar    1  UNL1       -0.2524
      4 C          61.9086   89.5483   10.8574 C.ar    1  UNL1        0.0830
      5 C          62.3550   88.1381   11.1069 C.ar    1  UNL1        0.0686
      6 C          61.8580   87.0277   10.2295 C.ar    1  UNL1        0.0048
      7 C          60.9144   87.3274    9.1026 C.ar    1  UNL1        0.0072
      8 C          63.2841   88.1476   12.2845 C.2     1  UNL1        0.2509
      9 O          63.9657   86.9511   12.8794 O.2     1  UNL1       -0.2698
     10 N          63.4117   89.5635   12.7628 N.am    1  UNL1       -0.2620
     11 C          62.5616   90.4292   11.8808 C.3     1  UNL1        0.1401
     12 C          62.3044   85.6175   10.4790 C.ar    1  UNL1        0.0106
     13 C          61.9351   84.9294   11.7596 C.ar    1  UNL1        0.0017
     14 C          62.3815   83.5193   12.0092 C.ar    1  UNL1        0.0114
     15 C          63.1972   82.7973   10.9780 C.ar    1  UNL1        0.0585
     16 CL         63.6436   81.3872   11.2275 Cl      1  UNL1       -0.0822
     17 C          63.5665   83.4854    9.6973 C.ar    1  UNL1        0.0228
     18 C          63.1201   84.8956    9.4478 C.ar    1  UNL1        0.0585
     19 CL         63.4894   85.5837    8.1671 Cl      1  UNL1       -0.0822
     20 C          60.4172   86.2169    8.2252 C.3     1  UNL1        0.0934
     21 N          58.9693   86.1581    7.8378 N.3     1  UNL1       -0.3174
     22 H          58.4020   85.9867    8.6679 H       1  UNL1        0.1192
     23 H          58.8273   85.4029    7.1670 H       1  UNL1        0.1192
     24 C          64.2435   90.0316   13.9200 C.3     1  UNL1        0.1798
     25 C          63.6897   89.9758   15.3128 C.2     1  UNL1        0.2460
     26 O          63.3005   91.2420   16.0166 O.2     1  UNL1       -0.2730
     27 N          63.5250   88.6537   16.0020 N.am    1  UNL1       -0.2782
     28 C          62.9711   88.5979   17.3949 C.3     1  UNL1        0.0934
     29 C          62.8064   87.2758   18.0841 C.3     1  UNL1        0.0216
     30 C          63.1955   86.0096   17.3804 C.3     1  UNL1        0.0035
     31 C          63.7493   86.0654   15.9876 C.3     1  UNL1        0.0216
     32 C          63.9141   87.3874   15.2983 C.3     1  UNL1        0.0934
@<TRIPOS>BOND
     1     1     2    1
     2     2     3   ar
     3     3     4   ar
     4     4     5   ar
     5     5     6   ar
     6     6    12    1
     7    12    13   ar
     8    13    14   ar
     9    14    15   ar
    10    15    16    1
    11    15    17   ar
    12    17    18   ar
    13    18    19    1
    14     6     7   ar
    15     7    20    1
    16    20    21    1
    17     5     8    1
    18     8     9    2
    19     8    10   am
    20    10    24    1
    21    24    25    1
    22    25    26    2
    23    25    27   am
    24    27    28    1
    25    28    29    1
    26    29    30    1
    27    30    31    1
    28    31    32    1
    29    10    11    1
    30     7     2   ar
    31    32    27    1
    32    11     4    1
    33    18    12   ar
    34    21    22    1
    35    21    23    1
@<TRIPOS>MOLECULE
*****
 32 35 0 0 0
SMALL
GASTEIGER

@<TRIPOS>ATOM
      1 C          61.0724   89.4389    9.4039 C.3     1  UNL1        0.0518
      2 C          61.8681   88.8905   10.5512 C.ar    1  UNL1        0.0563
      3 N          61.9031   87.4118   10.8006 N.ar    1  UNL1       -0.2524
      4 C          62.6987   86.8633   11.9478 C.ar    1  UNL1        0.0830
      5 C          63.4594   87.7936   12.8456 C.ar    1  UNL1        0.0686
      6 C          63.4244   89.2723   12.5962 C.ar    1  UNL1        0.0048
      7 C          62.6287   89.8207   11.4489 C.ar    1  UNL1        0.0072
      8 C          64.1506   86.9680   13.8900 C.2     1  UNL1        0.2509
      9 O          65.0222   87.4910   14.9930 O.2     1  UNL1       -0.2698
     10 N          63.8171   85.5275   13.6376 N.am    1  UNL1       -0.2620
     11 C          62.9198   85.4628   12.4373 C.3     1  UNL1        0.1401
     12 C          64.1851   90.2026   13.4940 C.ar    1  UNL1        0.0106
     13 C          65.4096   90.9029   12.9838 C.ar    1  UNL1        0.0017
     14 C          66.1703   91.8332   13.8815 C.ar    1  UNL1        0.0114
     15 C          65.7065   92.0632   15.2893 C.ar    1  UNL1        0.0585
     16 CL         66.4672   92.9935   16.1870 Cl      1  UNL1       -0.0822
     17 C          64.4820   91.3629   15.7995 C.ar    1  UNL1        0.0228
     18 C          63.7213   90.4326   14.9018 C.ar    1  UNL1        0.0585
     19 CL         62.4968   89.7323   15.4119 Cl      1  UNL1       -0.0822
     20 C          62.5938   91.2995   11.1995 C.3     1  UNL1        0.0934
     21 N          63.4628   91.9013   10.1353 N.3     1  UNL1       -0.3174
     22 H          64.4430   91.7955   10.3967 H       1  UNL1        0.1192
     23 H          63.2424   92.8923   10.0365 H       1  UNL1        0.1192
     24 C          64.2966   84.3571   14.4440 C.3     1  UNL1        0.1798
     25 C          63.3426   83.2606   14.8151 C.2     1  UNL1        0.2460
     26 O          62.6470   83.2895   16.1437 O.2     1  UNL1       -0.2730
     27 N          63.0843   82.1353   13.8574 N.am    1  UNL1       -0.2782
     28 C          62.1303   81.0389   14.2285 C.3     1  UNL1        0.0934
     29 C          61.8719   79.9135   13.2710 C.3     1  UNL1        0.0216
     30 C          62.5675   79.8846   11.9424 C.3     1  UNL1        0.0035
     31 C          63.5215   80.9811   11.5713 C.3     1  UNL1        0.0216
     32 C          63.7799   82.1064   12.5288 C.3     1  UNL1        0.0934
@<TRIPOS>BOND
     1     1     2    1
     2     2     3   ar
     3     3     4   ar
     4     4     5   ar
     5     5     6   ar
     6     6    12    1
     7    12    13   ar
     8    13    14   ar
     9    14    15   ar
    10    15    16    1
    11    15    17   ar
    12    17    18   ar
    13    18    19    1
    14     6     7   ar
    15     7    20    1
    16    20    21    1
    17     5     8    1
    18     8     9    2
    19     8    10   am
    20    10    24    1
    21    24    25    1
    22    25    26    2
    23    25    27   am
    24    27    28    1
    25    28    29    1
    26    29    30    1
    27    30    31    1
    28    31    32    1
    29    10    11    1
    30     7     2   ar
    31    32    27    1
    32    11     4    1
    33    18    12   ar
    34    21    22    1
    35    21    23    1
@<TRIPOS>MOLECULE
*****
 32 35 0 0 0
SMALL
GASTEIGER

@<TRIPOS>ATOM
      1 C          59.7354   89.3766    8.0399 C.3     1  UNL1        0.0518
      2 C          60.6702   89.0501    9.1666 C.ar    1  UNL1        0.0563
      3 N          61.2397   90.1508   10.0116 N.ar    1  UNL1       -0.2524
      4 C          62.1745   89.8243   11.1383 C.ar    1  UNL1        0.0830
      5 C          62.5398   88.3971   11.4201 C.ar    1  UNL1        0.0686
      6 C          61.9703   87.2963   10.5752 C.ar    1  UNL1        0.0048
      7 C          61.0355   87.6228    9.4484 C.ar    1  UNL1        0.0072
      8 C          63.4787   88.3811   12.5898 C.2     1  UNL1        0.2509
      9 O          64.0945   87.1618   13.2096 O.2     1  UNL1       -0.2698
     10 N          63.6937   89.7986   13.0309 N.am    1  UNL1       -0.2620
     11 C          62.8877   90.6905   12.1339 C.3     1  UNL1        0.1401
     12 C          62.3355   85.8689   10.8570 C.ar    1  UNL1        0.0106
     13 C          61.9921   85.2544   12.1815 C.ar    1  UNL1        0.0017
     14 C          62.3573   83.8271   12.4633 C.ar    1  UNL1        0.0114
     15 C          63.0659   83.0144   11.4206 C.ar    1  UNL1        0.0585
     16 CL         63.4311   81.5871   11.7024 Cl      1  UNL1       -0.0822
     17 C          63.4093   83.6289   10.0961 C.ar    1  UNL1        0.0228
     18 C          63.0441   85.0562    9.8142 C.ar    1  UNL1        0.0585
     19 CL         63.3875   85.6707    8.4897 Cl      1  UNL1       -0.0822
     20 C          60.4659   86.5220    8.6034 C.3     1  UNL1        0.0934
     21 N          59.0035   86.5127    8.2698 N.3     1  UNL1       -0.3174
     22 H          58.4612   86.3717    9.1221 H       1  UNL1        0.1192
     23 H          58.8092   85.7560    7.6140 H       1  UNL1        0.1192
     24 C          64.5622   90.2456   14.1693 C.3     1  UNL1        0.1798
     25 C          64.9880   91.6804   14.2692 C.2     1  UNL1        0.2460
     26 O          64.8813   92.4050   15.5782 O.2     1  UNL1       -0.2730
     27 N          65.5205   92.3907   13.0601 N.am    1  UNL1       -0.2782
     28 C          65.9463   93.8255   13.1600 C.3     1  UNL1        0.0934
     29 C          66.4788   94.5358   11.9509 C.3     1  UNL1        0.0216
     30 C          66.5855   93.8113   10.6419 C.3     1  UNL1        0.0035
     31 C          66.1597   92.3764   10.5419 C.3     1  UNL1        0.0216
     32 C          65.6272   91.6661   11.7510 C.3     1  UNL1        0.0934
@<TRIPOS>BOND
     1     1     2    1
     2     2     3   ar
     3     3     4   ar
     4     4     5   ar
     5     5     6   ar
     6     6    12    1
     7    12    13   ar
     8    13    14   ar
     9    14    15   ar
    10    15    16    1
    11    15    17   ar
    12    17    18   ar
    13    18    19    1
    14     6     7   ar
    15     7    20    1
    16    20    21    1
    17     5     8    1
    18     8     9    2
    19     8    10   am
    20    10    24    1
    21    24    25    1
    22    25    26    2
    23    25    27   am
    24    27    28    1
    25    28    29    1
    26    29    30    1
    27    30    31    1
    28    31    32    1
    29    10    11    1
    30     7     2   ar
    31    32    27    1
    32    11     4    1
    33    18    12   ar
    34    21    22    1
    35    21    23    1
