@<TRIPOS>MOLECULE
*****
 37 41 0 0 0
SMALL
GASTEIGER

@<TRIPOS>ATOM
      1 C          64.1550   91.3478   13.1155 C.3     1  UNL1        0.1909
      2 C          63.9172   91.3815   11.6349 C.3     1  UNL1        0.1783
      3 O          64.7729   92.4671   11.0525 O.3     1  UNL1       -0.3267
      4 C          65.5396   93.1044   12.1732 C.3     1  UNL1        0.2296
      5 O          65.1578   92.4127   13.4482 O.3     1  UNL1       -0.3255
      6 C          66.1066   93.9670   11.0849 C.ar    1  UNL1        0.0409
      7 C          65.5844   95.3586   10.8823 C.ar    1  UNL1        0.0022
      8 C          66.1514   96.2213    9.7940 C.ar    1  UNL1        0.0113
      9 C          67.2404   95.6925    8.9084 C.ar    1  UNL1        0.0585
     10 CL         67.8073   96.5552    7.8201 Cl      1  UNL1       -0.0822
     11 C          67.7625   94.3009    9.1110 C.ar    1  UNL1        0.0226
     12 C          67.1956   93.4383   10.1992 C.ar    1  UNL1        0.0591
     13 CL         67.7177   92.0467   10.4019 Cl      1  UNL1       -0.0824
     14 C          63.5043   90.4134   14.0920 C.3     1  UNL1        0.2374
     15 O          64.2813   89.2638   14.6617 O.3     1  UNL1       -0.4727
     16 C          63.6439   85.1055   13.0640 C.ar    1  UNL1        0.0481
     17 C          63.1219   86.2890   12.3045 C.ar    1  UNL1        0.0176
     18 C          63.3344   87.6751   12.8371 C.ar    1  UNL1        0.0382
     19 C          64.0688   87.8777   14.1291 C.ar    1  UNL1        0.1388
     20 C          64.5908   86.6942   14.8886 C.ar    1  UNL1        0.0382
     21 C          64.3783   85.3082   14.3561 C.ar    1  UNL1        0.0176
     22 N          63.0065   80.9473   11.4664 N.3     1  UNL1       -0.1559
     23 C          63.6861   81.9807   10.6179 C.3     1  UNL1        0.1168
     24 C          63.8986   83.3668   11.1504 C.3     1  UNL1        0.1099
     25 N          63.4314   83.7194   12.5315 N.pl3   1  UNL1       -0.3045
     26 C          62.7517   82.6860   13.3800 C.3     1  UNL1        0.1099
     27 C          62.5393   81.2999   12.8474 C.3     1  UNL1        0.1168
     28 C          62.5815   78.1751   10.4013 C.3     1  UNL1        0.1960
     29 S          62.7940   79.5612   10.9338 S.O2    1  UNL1        0.0458
     30 O          62.4755   79.0782   12.3178 O.2     1  UNL1       -0.1572
     31 O          63.1124   80.0441    9.5498 O.2     1  UNL1       -0.1572
     32 C          66.4249   93.9220   13.0665 C.3     1  UNL1        0.1682
     33 N          67.2666   93.2477   14.1090 N.ar    1  UNL1       -0.3025
     34 C          67.5361   93.7615   15.4922 C.ar    1  UNL1        0.0982
     35 C          68.4226   92.7726   16.1894 C.ar    1  UNL1        0.1193
     36 N          68.7010   91.6477   15.2371 N.ar    1  UNL1       -0.2223
     37 C          67.9866   91.9413   13.9513 C.ar    1  UNL1        0.1788
@<TRIPOS>BOND
     1    28    29    1
     2    29    30    2
     3    29    31    2
     4    29    22    1
     5    22    23    1
     6    23    24    1
     7    24    25    1
     8    25    16    1
     9    16    17   ar
    10    17    18   ar
    11    18    19   ar
    12    19    15    1
    13    15    14    1
    14     1    14    1
    15     1     2    1
    16     2     3    1
    17     3     4    1
    18     4    32    1
    19    32    33    1
    20    33    34   ar
    21    34    35   ar
    22    35    36   ar
    23    36    37   ar
    24     4     6    1
    25     6     7   ar
    26     7     8   ar
    27     8     9   ar
    28     9    10    1
    29     9    11   ar
    30    11    12   ar
    31    12    13    1
    32     4     5    1
    33    19    20   ar
    34    20    21   ar
    35    25    26    1
    36    26    27    1
    37    27    22    1
    38    21    16   ar
    39     5     1    1
    40    37    33   ar
    41    12     6   ar
@<TRIPOS>MOLECULE
*****
 37 41 0 0 0
SMALL
GASTEIGER

@<TRIPOS>ATOM
      1 C          65.9540   92.5905   14.3969 C.3     1  UNL1        0.1909
      2 C          66.5270   93.9745   14.3181 C.3     1  UNL1        0.1783
      3 O          66.5887   94.3691   12.8722 O.3     1  UNL1       -0.3267
      4 C          66.0538   93.2290   12.0574 C.3     1  UNL1        0.2296
      5 O          65.6615   92.1297   12.9996 O.3     1  UNL1       -0.3255
      6 C          66.3471   94.1292   10.8940 C.ar    1  UNL1        0.0409
      7 C          65.5874   95.4120   10.7282 C.ar    1  UNL1        0.0022
      8 C          65.8807   96.3122    9.5647 C.ar    1  UNL1        0.0113
      9 C          66.9335   95.9297    8.5672 C.ar    1  UNL1        0.0585
     10 CL         67.2268   96.8300    7.4037 Cl      1  UNL1       -0.0822
     11 C          67.6932   94.6469    8.7330 C.ar    1  UNL1        0.0226
     12 C          67.3999   93.7467    9.8964 C.ar    1  UNL1        0.0591
     13 CL         68.1595   92.4639   10.0623 Cl      1  UNL1       -0.0824
     14 C          65.7153   91.8052   15.6524 C.3     1  UNL1        0.2374
     15 O          64.3642   91.2114   15.9201 O.3     1  UNL1       -0.4727
     16 C          63.5925   86.8728   15.0085 C.ar    1  UNL1        0.0481
     17 C          63.1457   87.4553   16.3166 C.ar    1  UNL1        0.0176
     18 C          63.4029   88.9015   16.6204 C.ar    1  UNL1        0.0382
     19 C          64.1069   89.7652   15.6163 C.ar    1  UNL1        0.1388
     20 C          64.5538   89.1826   14.3083 C.ar    1  UNL1        0.0382
     21 C          64.2965   87.7364   14.0044 C.ar    1  UNL1        0.0176
     22 N          62.8207   82.5342   14.0970 N.3     1  UNL1       -0.1559
     23 C          62.2391   83.1561   15.3318 C.3     1  UNL1        0.1168
     24 C          62.4963   84.6023   15.6356 C.3     1  UNL1        0.1099
     25 N          63.3352   85.4266   14.7047 N.pl3   1  UNL1       -0.3045
     26 C          63.9169   84.8046   13.4699 C.3     1  UNL1        0.1099
     27 C          63.6597   83.3584   13.1660 C.3     1  UNL1        0.1168
     28 C          62.3063   79.6418   13.4892 C.3     1  UNL1        0.1960
     29 S          62.5635   81.0880   13.7931 S.O2    1  UNL1        0.0458
     30 O          63.9522   80.9569   13.2414 O.2     1  UNL1       -0.1572
     31 O          61.1748   81.2191   14.3448 O.2     1  UNL1       -0.1572
     32 C          65.5802   92.2770   10.9993 C.3     1  UNL1        0.1682
     33 N          64.2089   91.6759   11.0905 N.ar    1  UNL1       -0.3025
     34 C          63.3011   91.3718    9.9359 C.ar    1  UNL1        0.0982
     35 C          62.0358   90.7814   10.4842 C.ar    1  UNL1        0.1193
     36 N          62.1617   90.7207   11.9776 N.ar    1  UNL1       -0.2223
     37 C          63.5048   91.2736   12.3524 C.ar    1  UNL1        0.1788
@<TRIPOS>BOND
     1    28    29    1
     2    29    30    2
     3    29    31    2
     4    29    22    1
     5    22    23    1
     6    23    24    1
     7    24    25    1
     8    25    16    1
     9    16    17   ar
    10    17    18   ar
    11    18    19   ar
    12    19    15    1
    13    15    14    1
    14     1    14    1
    15     1     2    1
    16     2     3    1
    17     3     4    1
    18     4    32    1
    19    32    33    1
    20    33    34   ar
    21    34    35   ar
    22    35    36   ar
    23    36    37   ar
    24     4     6    1
    25     6     7   ar
    26     7     8   ar
    27     8     9   ar
    28     9    10    1
    29     9    11   ar
    30    11    12   ar
    31    12    13    1
    32     4     5    1
    33    19    20   ar
    34    20    21   ar
    35    25    26    1
    36    26    27    1
    37    27    22    1
    38    21    16   ar
    39     5     1    1
    40    37    33   ar
    41    12     6   ar
@<TRIPOS>MOLECULE
*****
 37 41 0 0 0
SMALL
GASTEIGER

@<TRIPOS>ATOM
      1 C          59.4745   88.0124    7.5056 C.3     1  UNL1        0.1909
      2 C          59.2155   86.5419    7.6485 C.3     1  UNL1        0.1783
      3 O          60.2613   85.9735    8.5613 O.3     1  UNL1       -0.3267
      4 C          61.1667   87.0928    8.9826 C.3     1  UNL1        0.2296
      5 O          60.6804   88.3530    8.3301 O.3     1  UNL1       -0.3255
      6 C          61.8731   86.0199    9.7569 C.ar    1  UNL1        0.0409
      7 C          61.6238   85.8693   11.2284 C.ar    1  UNL1        0.0022
      8 C          62.3302   84.7963   12.0028 C.ar    1  UNL1        0.0113
      9 C          63.2858   83.8739   11.3057 C.ar    1  UNL1        0.0585
     10 CL         63.9923   82.8009   12.0801 Cl      1  UNL1       -0.0822
     11 C          63.5351   84.0245    9.8342 C.ar    1  UNL1        0.0226
     12 C          62.8288   85.0975    9.0599 C.ar    1  UNL1        0.0591
     13 CL         63.0780   85.2481    7.5885 Cl      1  UNL1       -0.0824
     14 C          58.6690   88.9737    6.6827 C.3     1  UNL1        0.2374
     15 O          59.0183   90.4324    6.6776 O.3     1  UNL1       -0.4727
     16 C          61.0737   92.2414    3.1064 C.ar    1  UNL1        0.0481
     17 C          59.6685   92.6419    3.4456 C.ar    1  UNL1        0.0176
     18 C          58.9834   92.0389    4.6360 C.ar    1  UNL1        0.0382
     19 C          59.7034   91.0354    5.4872 C.ar    1  UNL1        0.1388
     20 C          61.1086   90.6350    5.1480 C.ar    1  UNL1        0.0382
     21 C          61.7937   91.2380    3.9576 C.ar    1  UNL1        0.0176
     22 N          63.1290   94.0505   -0.4647 N.3     1  UNL1       -0.1559
     23 C          61.6385   93.8821   -0.4627 C.3     1  UNL1        0.1168
     24 C          60.9534   93.2791    0.7276 C.3     1  UNL1        0.1099
     25 N          61.7588   92.8445    1.9161 N.pl3   1  UNL1       -0.3045
     26 C          63.2492   93.0128    1.9141 C.3     1  UNL1        0.1099
     27 C          63.9344   93.6158    0.7237 C.3     1  UNL1        0.1168
     28 C          64.4992   95.2565   -2.8455 C.3     1  UNL1        0.1960
     29 S          63.8141   94.6535   -1.6551 S.O2    1  UNL1        0.0458
     30 O          62.6659   94.2381   -2.5263 O.2     1  UNL1       -0.1572
     31 O          64.9623   95.0689   -0.7838 O.2     1  UNL1       -0.1572
     32 C          62.2197   87.9879    9.5657 C.3     1  UNL1        0.1682
     33 N          61.9358   88.7631   10.8181 N.ar    1  UNL1       -0.3025
     34 C          62.9602   89.3555   11.7397 C.ar    1  UNL1        0.0982
     35 C          62.2350   90.0406   12.8598 C.ar    1  UNL1        0.1193
     36 N          60.7624   89.8716   12.6305 N.ar    1  UNL1       -0.2223
     37 C          60.5774   89.0821   11.3686 C.ar    1  UNL1        0.1788
@<TRIPOS>BOND
     1    28    29    1
     2    29    30    2
     3    29    31    2
     4    29    22    1
     5    22    23    1
     6    23    24    1
     7    24    25    1
     8    25    16    1
     9    16    17   ar
    10    17    18   ar
    11    18    19   ar
    12    19    15    1
    13    15    14    1
    14     1    14    1
    15     1     2    1
    16     2     3    1
    17     3     4    1
    18     4    32    1
    19    32    33    1
    20    33    34   ar
    21    34    35   ar
    22    35    36   ar
    23    36    37   ar
    24     4     6    1
    25     6     7   ar
    26     7     8   ar
    27     8     9   ar
    28     9    10    1
    29     9    11   ar
    30    11    12   ar
    31    12    13    1
    32     4     5    1
    33    19    20   ar
    34    20    21   ar
    35    25    26    1
    36    26    27    1
    37    27    22    1
    38    21    16   ar
    39     5     1    1
    40    37    33   ar
    41    12     6   ar
@<TRIPOS>MOLECULE
*****
 37 41 0 0 0
SMALL
GASTEIGER

@<TRIPOS>ATOM
      1 C          63.4368   90.0192   15.7801 C.3     1  UNL1        0.1909
      2 C          64.1069   91.3514   15.9416 C.3     1  UNL1        0.1783
      3 O          64.6156   91.7805   14.5973 O.3     1  UNL1       -0.3267
      4 C          64.2597   90.7135   13.6049 C.3     1  UNL1        0.2296
      5 O          63.5312   89.6249   14.3358 O.3     1  UNL1       -0.3255
      6 C          64.9437   91.6185   12.6236 C.ar    1  UNL1        0.0409
      7 C          64.2062   92.1040   11.4109 C.ar    1  UNL1        0.0022
      8 C          64.8903   93.0091   10.4296 C.ar    1  UNL1        0.0113
      9 C          66.3117   93.4287   10.6609 C.ar    1  UNL1        0.0585
     10 CL         66.9957   94.3338    9.6796 Cl      1  UNL1       -0.0822
     11 C          67.0491   92.9432   11.8736 C.ar    1  UNL1        0.0226
     12 C          66.3652   92.0382   12.8549 C.ar    1  UNL1        0.0591
     13 CL         67.1025   91.5527   14.0676 Cl      1  UNL1       -0.0824
     14 C          62.7864   89.2213   16.8711 C.3     1  UNL1        0.2374
     15 O          63.3822   87.9136   17.3010 O.3     1  UNL1       -0.4727
     16 C          63.1400   84.3309   14.5889 C.ar    1  UNL1        0.0481
     17 C          64.1637   85.3970   14.3335 C.ar    1  UNL1        0.0176
     18 C          64.2444   86.5913   15.2375 C.ar    1  UNL1        0.0382
     19 C          63.3014   86.7193   16.3970 C.ar    1  UNL1        0.1388
     20 C          62.2778   85.6531   16.6524 C.ar    1  UNL1        0.0382
     21 C          62.1970   84.4589   15.7484 C.ar    1  UNL1        0.0176
     22 N          62.8979   80.7481   11.8768 N.3     1  UNL1       -0.1559
     23 C          63.4937   82.0299   11.3748 C.3     1  UNL1        0.1168
     24 C          63.5744   83.2241   12.2789 C.3     1  UNL1        0.1099
     25 N          63.0593   83.1366   13.6849 N.pl3   1  UNL1       -0.3045
     26 C          62.4634   81.8549   14.1868 C.3     1  UNL1        0.1099
     27 C          62.3827   80.6606   13.2828 C.3     1  UNL1        0.1168
     28 C          62.7364   78.3597   10.0687 C.3     1  UNL1        0.1960
     29 S          62.8171   79.5539   10.9728 S.O2    1  UNL1        0.0458
     30 O          62.5099   78.6810   12.1533 O.2     1  UNL1       -0.1572
     31 O          63.1244   80.4268    9.7922 O.2     1  UNL1       -0.1572
     32 C          64.0469   89.8356   12.4073 C.3     1  UNL1        0.1682
     33 N          62.6689   89.3486   12.0698 N.ar    1  UNL1       -0.3025
     34 C          61.4067   90.1559   12.1398 C.ar    1  UNL1        0.0982
     35 C          60.2689   89.2749   11.7162 C.ar    1  UNL1        0.1193
     36 N          60.8280   87.9232   11.3844 N.ar    1  UNL1       -0.2223
     37 C          62.3113   87.9687   11.6029 C.ar    1  UNL1        0.1788
@<TRIPOS>BOND
     1    28    29    1
     2    29    30    2
     3    29    31    2
     4    29    22    1
     5    22    23    1
     6    23    24    1
     7    24    25    1
     8    25    16    1
     9    16    17   ar
    10    17    18   ar
    11    18    19   ar
    12    19    15    1
    13    15    14    1
    14     1    14    1
    15     1     2    1
    16     2     3    1
    17     3     4    1
    18     4    32    1
    19    32    33    1
    20    33    34   ar
    21    34    35   ar
    22    35    36   ar
    23    36    37   ar
    24     4     6    1
    25     6     7   ar
    26     7     8   ar
    27     8     9   ar
    28     9    10    1
    29     9    11   ar
    30    11    12   ar
    31    12    13    1
    32     4     5    1
    33    19    20   ar
    34    20    21   ar
    35    25    26    1
    36    26    27    1
    37    27    22    1
    38    21    16   ar
    39     5     1    1
    40    37    33   ar
    41    12     6   ar
@<TRIPOS>MOLECULE
*****
 37 41 0 0 0
SMALL
GASTEIGER

@<TRIPOS>ATOM
      1 C          63.1096   86.4751   16.3586 C.3     1  UNL1        0.1909
      2 C          62.5444   85.2129   16.9394 C.3     1  UNL1        0.1783
      3 O          62.6087   84.1480   15.8850 O.3     1  UNL1       -0.3267
      4 C          63.2137   84.7520   14.6524 C.3     1  UNL1        0.2296
      5 O          63.5233   86.1903   14.9451 O.3     1  UNL1       -0.3255
      6 C          63.0222   83.3802   14.0770 C.ar    1  UNL1        0.0409
      7 C          61.7651   82.6144   14.3658 C.ar    1  UNL1        0.0022
      8 C          61.5736   81.2425   13.7903 C.ar    1  UNL1        0.0113
      9 C          62.6392   80.6363   12.9260 C.ar    1  UNL1        0.0585
     10 CL         62.4477   79.2644   12.3505 Cl      1  UNL1       -0.0822
     11 C          63.8963   81.4021   12.6371 C.ar    1  UNL1        0.0226
     12 C          64.0878   82.7739   13.2126 C.ar    1  UNL1        0.0591
     13 CL         65.3448   83.5397   12.9238 Cl      1  UNL1       -0.0824
     14 C          63.2385   87.7911   17.0668 C.3     1  UNL1        0.2374
     15 O          62.5219   88.9993   16.5408 O.3     1  UNL1       -0.4727
     16 C          64.5269   91.6682   13.5231 C.ar    1  UNL1        0.0481
     17 C          64.7396   91.9018   14.9894 C.ar    1  UNL1        0.0176
     18 C          64.0712   91.0122   15.9953 C.ar    1  UNL1        0.0382
     19 C          63.1902   89.8889   15.5349 C.ar    1  UNL1        0.1388
     20 C          62.9776   89.6553   14.0686 C.ar    1  UNL1        0.0382
     21 C          63.6459   90.5449   13.0627 C.ar    1  UNL1        0.0176
     22 N          66.5320   94.3371   10.5054 N.3     1  UNL1       -0.1559
     23 C          66.7576   94.5606   11.9714 C.3     1  UNL1        0.1168
     24 C          66.0893   93.6709   12.9773 C.3     1  UNL1        0.1099
     25 N          65.1953   92.5578   12.5172 N.pl3   1  UNL1       -0.3045
     26 C          64.9696   92.3344   11.0512 C.3     1  UNL1        0.1099
     27 C          65.6380   93.2240   10.0453 C.3     1  UNL1        0.1168
     28 C          67.8687   96.1164    8.4936 C.3     1  UNL1        0.1960
     29 S          67.2004   95.2268    9.4995 S.O2    1  UNL1        0.0458
     30 O          68.4349   94.3775    9.5686 O.2     1  UNL1       -0.1572
     31 O          65.9659   96.0760    9.4304 O.2     1  UNL1       -0.1572
     32 C          63.7787   85.0694   13.2996 C.3     1  UNL1        0.1682
     33 N          62.8966   85.6544   12.2367 N.ar    1  UNL1       -0.3025
     34 C          62.7151   87.1148   11.9469 C.ar    1  UNL1        0.0982
     35 C          61.7475   87.2446   10.8081 C.ar    1  UNL1        0.1193
     36 N          61.3309   85.8644   10.3942 N.ar    1  UNL1       -0.2223
     37 C          62.0411   84.8815   11.2771 C.ar    1  UNL1        0.1788
@<TRIPOS>BOND
     1    28    29    1
     2    29    30    2
     3    29    31    2
     4    29    22    1
     5    22    23    1
     6    23    24    1
     7    24    25    1
     8    25    16    1
     9    16    17   ar
    10    17    18   ar
    11    18    19   ar
    12    19    15    1
    13    15    14    1
    14     1    14    1
    15     1     2    1
    16     2     3    1
    17     3     4    1
    18     4    32    1
    19    32    33    1
    20    33    34   ar
    21    34    35   ar
    22    35    36   ar
    23    36    37   ar
    24     4     6    1
    25     6     7   ar
    26     7     8   ar
    27     8     9   ar
    28     9    10    1
    29     9    11   ar
    30    11    12   ar
    31    12    13    1
    32     4     5    1
    33    19    20   ar
    34    20    21   ar
    35    25    26    1
    36    26    27    1
    37    27    22    1
    38    21    16   ar
    39     5     1    1
    40    37    33   ar
    41    12     6   ar
@<TRIPOS>MOLECULE
*****
 37 41 0 0 0
SMALL
GASTEIGER

@<TRIPOS>ATOM
      1 C          62.2604   85.1450   15.5755 C.3     1  UNL1        0.1909
      2 C          61.9953   83.6757   15.7201 C.3     1  UNL1        0.1783
      3 O          62.3258   83.0143   14.4150 O.3     1  UNL1       -0.3267
      4 C          62.7952   84.0748   13.4638 C.3     1  UNL1        0.2296
      5 O          62.7548   85.3917   14.1809 O.3     1  UNL1       -0.3255
      6 C          62.9401   82.9298   12.5059 C.ar    1  UNL1        0.0409
      7 C          63.7705   83.0889   11.2668 C.ar    1  UNL1        0.0022
      8 C          63.9154   81.9438   10.3088 C.ar    1  UNL1        0.0113
      9 C          63.2300   80.6395   10.5899 C.ar    1  UNL1        0.0585
     10 CL         63.3749   79.4944    9.6319 Cl      1  UNL1       -0.0822
     11 C          62.3996   80.4803   11.8290 C.ar    1  UNL1        0.0226
     12 C          62.2547   81.6254   12.7869 C.ar    1  UNL1        0.0591
     13 CL         61.4243   81.4663   14.0259 Cl      1  UNL1       -0.0824
     14 C          62.0654   86.1849   16.6387 C.3     1  UNL1        0.2374
     15 O          63.2177   87.0439   17.0680 O.3     1  UNL1       -0.4727
     16 C          64.5813   90.4476   14.4594 C.ar    1  UNL1        0.0481
     17 C          64.9032   89.0336   14.0764 C.ar    1  UNL1        0.0176
     18 C          64.4487   87.8990   14.9460 C.ar    1  UNL1        0.0382
     19 C          63.6722   88.1785   16.1985 C.ar    1  UNL1        0.1388
     20 C          63.3503   89.5925   16.5815 C.ar    1  UNL1        0.0382
     21 C          63.8048   90.7271   15.7119 C.ar    1  UNL1        0.0176
     22 N          65.9449   93.8514   11.8508 N.3     1  UNL1       -0.1559
     23 C          65.0568   92.7827   11.2859 C.3     1  UNL1        0.1168
     24 C          64.6023   91.6481   12.1554 C.3     1  UNL1        0.1099
     25 N          65.0358   91.5822   13.5898 N.pl3   1  UNL1       -0.3045
     26 C          65.9239   92.6509   14.1547 C.3     1  UNL1        0.1099
     27 C          66.3785   93.7855   13.2852 C.3     1  UNL1        0.1168
     28 C          66.8540   96.1205   10.1117 C.3     1  UNL1        0.1960
     29 S          66.3995   94.9859   10.9812 S.O2    1  UNL1        0.0458
     30 O          65.9883   95.9636   12.0419 O.2     1  UNL1       -0.1572
     31 O          66.8107   94.0083    9.9205 O.2     1  UNL1       -0.1572
     32 C          63.2949   84.8961   12.3122 C.3     1  UNL1        0.1682
     33 N          62.4443   85.9966   11.7509 N.ar    1  UNL1       -0.3025
     34 C          61.2683   85.8228   10.8362 C.ar    1  UNL1        0.0982
     35 C          60.7175   87.1830   10.5257 C.ar    1  UNL1        0.1193
     36 N          61.5532   88.1975   11.2485 N.ar    1  UNL1       -0.2223
     37 C          62.6204   87.4643   12.0057 C.ar    1  UNL1        0.1788
@<TRIPOS>BOND
     1    28    29    1
     2    29    30    2
     3    29    31    2
     4    29    22    1
     5    22    23    1
     6    23    24    1
     7    24    25    1
     8    25    16    1
     9    16    17   ar
    10    17    18   ar
    11    18    19   ar
    12    19    15    1
    13    15    14    1
    14     1    14    1
    15     1     2    1
    16     2     3    1
    17     3     4    1
    18     4    32    1
    19    32    33    1
    20    33    34   ar
    21    34    35   ar
    22    35    36   ar
    23    36    37   ar
    24     4     6    1
    25     6     7   ar
    26     7     8   ar
    27     8     9   ar
    28     9    10    1
    29     9    11   ar
    30    11    12   ar
    31    12    13    1
    32     4     5    1
    33    19    20   ar
    34    20    21   ar
    35    25    26    1
    36    26    27    1
    37    27    22    1
    38    21    16   ar
    39     5     1    1
    40    37    33   ar
    41    12     6   ar
@<TRIPOS>MOLECULE
*****
 37 41 0 0 0
SMALL
GASTEIGER

@<TRIPOS>ATOM
      1 C          64.0799   91.7301   10.8164 C.3     1  UNL1        0.1909
      2 C          63.9273   91.4183   12.2757 C.3     1  UNL1        0.1783
      3 O          65.1722   91.8714   12.9792 O.3     1  UNL1       -0.3267
      4 C          66.0943   92.4632   11.9547 C.3     1  UNL1        0.2296
      5 O          65.4192   92.3759   10.6180 O.3     1  UNL1       -0.3255
      6 C          67.0017   92.6839   13.1284 C.ar    1  UNL1        0.0409
      7 C          66.5509   93.5407   14.2743 C.ar    1  UNL1        0.0022
      8 C          67.4584   93.7614   15.4480 C.ar    1  UNL1        0.0113
      9 C          68.8166   93.1254   15.4760 C.ar    1  UNL1        0.0585
     10 CL         69.7241   93.3461   16.6498 Cl      1  UNL1       -0.0822
     11 C          69.2674   92.2686   14.3302 C.ar    1  UNL1        0.0226
     12 C          68.3599   92.0479   13.1565 C.ar    1  UNL1        0.0591
     13 CL         68.8106   91.1912   12.0106 Cl      1  UNL1       -0.0824
     14 C          63.0705   91.4459    9.7439 C.3     1  UNL1        0.2374
     15 O          61.8523   90.6290   10.0578 O.3     1  UNL1       -0.4727
     16 C          62.2924   86.3533   11.3900 C.ar    1  UNL1        0.0481
     17 C          62.7638   87.4675   12.2768 C.ar    1  UNL1        0.0176
     18 C          62.6171   88.8927   11.8327 C.ar    1  UNL1        0.0382
     19 C          61.9990   89.2038   10.5019 C.ar    1  UNL1        0.1388
     20 C          61.5276   88.0896    9.6151 C.ar    1  UNL1        0.0382
     21 C          61.6742   86.6644   10.0592 C.ar    1  UNL1        0.0176
     22 N          62.7324   82.0776   12.7222 N.3     1  UNL1       -0.1559
     23 C          62.5168   83.1609   13.7370 C.3     1  UNL1        0.1168
     24 C          62.3701   84.5862   13.2929 C.3     1  UNL1        0.1099
     25 N          62.4391   84.9281   11.8341 N.pl3   1  UNL1       -0.3045
     26 C          62.6547   83.8448   10.8193 C.3     1  UNL1        0.1099
     27 C          62.8014   82.4195   11.2633 C.3     1  UNL1        0.1168
     28 C          63.0258   79.2271   13.6103 C.3     1  UNL1        0.1960
     29 S          62.8791   80.6524   13.1662 S.O2    1  UNL1        0.0458
     30 O          63.0369   81.1109   14.5857 O.2     1  UNL1       -0.1572
     31 O          62.7213   80.1939   11.7468 O.2     1  UNL1       -0.1572
     32 C          67.2060   93.1012   11.1755 C.3     1  UNL1        0.1682
     33 N          67.0036   94.4469   10.5445 N.ar    1  UNL1       -0.3025
     34 C          66.1668   95.5626   11.0966 C.ar    1  UNL1        0.0982
     35 C          66.2485   96.7184   10.1440 C.ar    1  UNL1        0.1193
     36 N          67.1357   96.3169    9.0031 N.ar    1  UNL1       -0.2223
     37 C          67.6024   94.9131    9.2507 C.ar    1  UNL1        0.1788
@<TRIPOS>BOND
     1    28    29    1
     2    29    30    2
     3    29    31    2
     4    29    22    1
     5    22    23    1
     6    23    24    1
     7    24    25    1
     8    25    16    1
     9    16    17   ar
    10    17    18   ar
    11    18    19   ar
    12    19    15    1
    13    15    14    1
    14     1    14    1
    15     1     2    1
    16     2     3    1
    17     3     4    1
    18     4    32    1
    19    32    33    1
    20    33    34   ar
    21    34    35   ar
    22    35    36   ar
    23    36    37   ar
    24     4     6    1
    25     6     7   ar
    26     7     8   ar
    27     8     9   ar
    28     9    10    1
    29     9    11   ar
    30    11    12   ar
    31    12    13    1
    32     4     5    1
    33    19    20   ar
    34    20    21   ar
    35    25    26    1
    36    26    27    1
    37    27    22    1
    38    21    16   ar
    39     5     1    1
    40    37    33   ar
    41    12     6   ar
@<TRIPOS>MOLECULE
*****
 37 41 0 0 0
SMALL
GASTEIGER

@<TRIPOS>ATOM
      1 C          59.7222   91.9835    4.3970 C.3     1  UNL1        0.1909
      2 C          61.1270   91.5232    4.1429 C.3     1  UNL1        0.1783
      3 O          61.7026   92.3729    3.0489 O.3     1  UNL1       -0.3267
      4 C          60.6534   93.3584    2.6269 C.3     1  UNL1        0.2296
      5 O          59.4295   93.1178    3.4600 O.3     1  UNL1       -0.3255
      6 C          61.7039   93.8255    1.6635 C.ar    1  UNL1        0.0409
      7 C          62.3870   95.1434    1.8796 C.ar    1  UNL1        0.0022
      8 C          63.4375   95.6105    0.9162 C.ar    1  UNL1        0.0113
      9 C          63.8050   94.7598   -0.2633 C.ar    1  UNL1        0.0585
     10 CL         64.8555   95.2269   -1.2268 Cl      1  UNL1       -0.0822
     11 C          63.1219   93.4418   -0.4794 C.ar    1  UNL1        0.0226
     12 C          62.0715   92.9748    0.4840 C.ar    1  UNL1        0.0591
     13 CL         61.3884   91.6569    0.2680 Cl      1  UNL1       -0.0824
     14 C          58.7762   91.4102    5.4101 C.3     1  UNL1        0.2374
     15 O          58.6868   89.9246    5.5965 O.3     1  UNL1       -0.4727
     16 C          60.7986   87.9592    9.0502 C.ar    1  UNL1        0.0481
     17 C          60.7681   89.4550    8.9428 C.ar    1  UNL1        0.0176
     18 C          60.0642   90.1101    7.7916 C.ar    1  UNL1        0.0382
     19 C          59.3908   89.2695    6.7477 C.ar    1  UNL1        0.1388
     20 C          59.4213   87.7737    6.8551 C.ar    1  UNL1        0.0382
     21 C          60.1252   87.1185    8.0063 C.ar    1  UNL1        0.0176
     22 N          62.9104   85.9939   12.5038 N.3     1  UNL1       -0.1559
     23 C          63.0094   87.4780   12.3106 C.3     1  UNL1        0.1168
     24 C          62.3055   88.1332   11.1594 C.3     1  UNL1        0.1099
     25 N          61.5025   87.3041   10.2014 N.pl3   1  UNL1       -0.3045
     26 C          61.4035   85.8199   10.3946 C.3     1  UNL1        0.1099
     27 C          62.1074   85.1648   11.5458 C.3     1  UNL1        0.1168
     28 C          64.3182   84.6836   14.8063 C.3     1  UNL1        0.1960
     29 S          63.6143   85.3387   13.6551 S.O2    1  UNL1        0.0458
     30 O          63.9525   86.6881   14.2161 O.2     1  UNL1       -0.1572
     31 O          63.2761   83.9894   13.0940 O.2     1  UNL1       -0.1572
     32 C          59.8238   94.4416    2.0035 C.3     1  UNL1        0.1682
     33 N          59.1522   94.2061    0.6831 N.ar    1  UNL1       -0.3025
     34 C          58.4111   92.9660    0.2798 C.ar    1  UNL1        0.0982
     35 C          57.9047   93.1628   -1.1184 C.ar    1  UNL1        0.1193
     36 N          58.3329   94.5245   -1.5791 N.ar    1  UNL1       -0.2223
     37 C          59.1040   95.1693   -0.4657 C.ar    1  UNL1        0.1788
@<TRIPOS>BOND
     1    28    29    1
     2    29    30    2
     3    29    31    2
     4    29    22    1
     5    22    23    1
     6    23    24    1
     7    24    25    1
     8    25    16    1
     9    16    17   ar
    10    17    18   ar
    11    18    19   ar
    12    19    15    1
    13    15    14    1
    14     1    14    1
    15     1     2    1
    16     2     3    1
    17     3     4    1
    18     4    32    1
    19    32    33    1
    20    33    34   ar
    21    34    35   ar
    22    35    36   ar
    23    36    37   ar
    24     4     6    1
    25     6     7   ar
    26     7     8   ar
    27     8     9   ar
    28     9    10    1
    29     9    11   ar
    30    11    12   ar
    31    12    13    1
    32     4     5    1
    33    19    20   ar
    34    20    21   ar
    35    25    26    1
    36    26    27    1
    37    27    22    1
    38    21    16   ar
    39     5     1    1
    40    37    33   ar
    41    12     6   ar
@<TRIPOS>MOLECULE
*****
 37 41 0 0 0
SMALL
GASTEIGER

@<TRIPOS>ATOM
      1 C          64.4024   91.9895   11.0562 C.3     1  UNL1        0.1909
      2 C          65.1999   93.2599   11.0527 C.3     1  UNL1        0.1783
      3 O          66.1397   93.2205   12.2212 O.3     1  UNL1       -0.3267
      4 C          65.9230   91.9258   12.9468 C.3     1  UNL1        0.2296
      5 O          64.8492   91.1649   12.2269 O.3     1  UNL1       -0.3255
      6 C          66.9983   92.4383   13.8583 C.ar    1  UNL1        0.0409
      7 C          66.6353   93.2677   15.0544 C.ar    1  UNL1        0.0022
      8 C          67.7108   93.7802   15.9659 C.ar    1  UNL1        0.0113
      9 C          69.1490   93.4634   15.6814 C.ar    1  UNL1        0.0585
     10 CL         70.2244   93.9760   16.5929 Cl      1  UNL1       -0.0822
     11 C          69.5120   92.6340   14.4853 C.ar    1  UNL1        0.0226
     12 C          68.4366   92.1215   13.5738 C.ar    1  UNL1        0.0591
     13 CL         68.7995   91.2921   12.3778 Cl      1  UNL1       -0.0824
     14 C          63.3438   91.6103   10.0634 C.3     1  UNL1        0.2374
     15 O          62.1200   90.8713   10.5174 O.3     1  UNL1       -0.4727
     16 C          62.4038   86.5220   11.6370 C.ar    1  UNL1        0.0481
     17 C          63.1281   87.5544   12.4491 C.ar    1  UNL1        0.0176
     18 C          63.0335   89.0041   12.0760 C.ar    1  UNL1        0.0382
     19 C          62.2146   89.4215   10.8906 C.ar    1  UNL1        0.1388
     20 C          61.4903   88.3892   10.0784 C.ar    1  UNL1        0.0382
     21 C          61.5849   86.9395   10.4516 C.ar    1  UNL1        0.0176
     22 N          62.6876   82.1728   12.7565 N.3     1  UNL1       -0.1559
     23 C          62.8001   82.5861   11.3190 C.3     1  UNL1        0.1168
     24 C          62.7055   84.0358   10.9458 C.3     1  UNL1        0.1099
     25 N          62.4984   85.0723   12.0101 N.pl3   1  UNL1       -0.3045
     26 C          62.3859   84.6590   13.4476 C.3     1  UNL1        0.1099
     27 C          62.4805   83.2092   13.8208 C.3     1  UNL1        0.1168
     28 C          62.8767   79.2733   13.5029 C.3     1  UNL1        0.1960
     29 S          62.7822   80.7230   13.1297 S.O2    1  UNL1        0.0458
     30 O          62.8492   80.3536   11.6775 O.2     1  UNL1       -0.1572
     31 O          62.7151   81.0925   14.5819 O.2     1  UNL1       -0.1572
     32 C          65.9310   90.7381   13.8631 C.3     1  UNL1        0.1682
     33 N          64.8512   90.5770   14.8917 N.ar    1  UNL1       -0.3025
     34 C          64.1448   89.2993   15.2357 C.ar    1  UNL1        0.0982
     35 C          63.1453   89.5980   16.3136 C.ar    1  UNL1        0.1193
     36 N          63.2341   91.0603   16.6358 N.ar    1  UNL1       -0.2223
     37 C          64.2885   91.6653   15.7570 C.ar    1  UNL1        0.1788
@<TRIPOS>BOND
     1    28    29    1
     2    29    30    2
     3    29    31    2
     4    29    22    1
     5    22    23    1
     6    23    24    1
     7    24    25    1
     8    25    16    1
     9    16    17   ar
    10    17    18   ar
    11    18    19   ar
    12    19    15    1
    13    15    14    1
    14     1    14    1
    15     1     2    1
    16     2     3    1
    17     3     4    1
    18     4    32    1
    19    32    33    1
    20    33    34   ar
    21    34    35   ar
    22    35    36   ar
    23    36    37   ar
    24     4     6    1
    25     6     7   ar
    26     7     8   ar
    27     8     9   ar
    28     9    10    1
    29     9    11   ar
    30    11    12   ar
    31    12    13    1
    32     4     5    1
    33    19    20   ar
    34    20    21   ar
    35    25    26    1
    36    26    27    1
    37    27    22    1
    38    21    16   ar
    39     5     1    1
    40    37    33   ar
    41    12     6   ar
