@<TRIPOS>MOLECULE
*****
 6 6 0 0 0
SMALL
GASTEIGER

@<TRIPOS>ATOM
      1 C          65.2704   92.4416   11.0307 C.3     1  UNL1        0.1321
      2 N          66.4834   93.0172   10.3619 N.ar    1  UNL1       -0.3058
      3 C          66.6001   94.3960    9.7827 C.ar    1  UNL1        0.0981
      4 C          67.9815   94.5460    9.2176 C.ar    1  UNL1        0.1193
      5 N          68.7185   93.2600    9.4475 N.ar    1  UNL1       -0.2223
      6 C          67.7926   92.3151   10.1547 C.ar    1  UNL1        0.1787
@<TRIPOS>BOND
     1     1     2    1
     2     2     3   ar
     3     3     4   ar
     4     4     5   ar
     5     5     6   ar
     6     6     2   ar
@<TRIPOS>MOLECULE
*****
 6 6 0 0 0
SMALL
GASTEIGER

@<TRIPOS>ATOM
      1 C          65.4031   90.9970   14.5132 C.3     1  UNL1        0.1321
      2 N          66.6250   91.8278   14.7715 N.ar    1  UNL1       -0.3058
      3 C          66.8442   92.7313   15.9487 C.ar    1  UNL1        0.0981
      4 C          68.1969   93.3629   15.8027 C.ar    1  UNL1        0.1193
      5 N          68.8137   92.8498   14.5354 N.ar    1  UNL1       -0.2223
      6 C          67.8422   91.9010   13.8981 C.ar    1  UNL1        0.1787
@<TRIPOS>BOND
     1     1     2    1
     2     2     3   ar
     3     3     4   ar
     4     4     5   ar
     5     5     6   ar
     6     6     2   ar
@<TRIPOS>MOLECULE
*****
 6 6 0 0 0
SMALL
GASTEIGER

@<TRIPOS>ATOM
      1 C          67.2328   95.3173    8.2857 C.3     1  UNL1        0.1321
      2 N          67.3647   94.1720    9.2453 N.ar    1  UNL1       -0.3058
      3 C          66.3909   93.8122   10.3280 C.ar    1  UNL1        0.0981
      4 C          66.9180   92.6032   11.0425 C.ar    1  UNL1        0.1193
      5 N          68.2176   92.2157   10.4014 N.ar    1  UNL1       -0.2223
      6 C          68.4936   93.1853    9.2906 C.ar    1  UNL1        0.1787
@<TRIPOS>BOND
     1     1     2    1
     2     2     3   ar
     3     3     4   ar
     4     4     5   ar
     5     5     6   ar
     6     6     2   ar
@<TRIPOS>MOLECULE
*****
 6 6 0 0 0
SMALL
GASTEIGER

@<TRIPOS>ATOM
      1 C          64.5480   83.7960   13.9318 C.3     1  UNL1        0.1321
      2 N          63.5644   82.6636   13.9168 N.ar    1  UNL1       -0.3058
      3 C          63.7714   81.3244   13.2738 C.ar    1  UNL1        0.0981
      4 C          62.5360   80.5047   13.5018 C.ar    1  UNL1        0.1193
      5 N          61.5654   81.3374   14.2857 N.ar    1  UNL1       -0.2223
      6 C          62.2010   82.6717   14.5422 C.ar    1  UNL1        0.1787
@<TRIPOS>BOND
     1     1     2    1
     2     2     3   ar
     3     3     4   ar
     4     4     5   ar
     5     5     6   ar
     6     6     2   ar
@<TRIPOS>MOLECULE
*****
 6 6 0 0 0
SMALL
GASTEIGER

@<TRIPOS>ATOM
      1 C          68.6917   92.3578    8.9363 C.3     1  UNL1        0.1321
      2 N          67.7723   93.3525    9.5807 N.ar    1  UNL1       -0.3058
      3 C          66.7315   93.0486   10.6172 C.ar    1  UNL1        0.0981
      4 C          66.0481   94.3340   10.9788 C.ar    1  UNL1        0.1193
      5 N          66.6666   95.4324   10.1658 N.ar    1  UNL1       -0.2223
      6 C          67.7322   94.8258    9.3017 C.ar    1  UNL1        0.1787
@<TRIPOS>BOND
     1     1     2    1
     2     2     3   ar
     3     3     4   ar
     4     4     5   ar
     5     5     6   ar
     6     6     2   ar
@<TRIPOS>MOLECULE
*****
 6 6 0 0 0
SMALL
GASTEIGER

@<TRIPOS>ATOM
      1 C          67.2787   96.7333    8.2157 C.3     1  UNL1        0.1321
      2 N          67.0885   95.7421    9.3253 N.ar    1  UNL1       -0.3058
      3 C          66.1879   95.9103   10.5130 C.ar    1  UNL1        0.0981
      4 C          66.3083   94.6808   11.3639 C.ar    1  UNL1        0.1193
      5 N          67.2833   93.7528   10.7021 N.ar    1  UNL1       -0.2223
      6 C          67.7655   94.4087    9.4422 C.ar    1  UNL1        0.1787
@<TRIPOS>BOND
     1     1     2    1
     2     2     3   ar
     3     3     4   ar
     4     4     5   ar
     5     5     6   ar
     6     6     2   ar
@<TRIPOS>MOLECULE
*****
 6 6 0 0 0
SMALL
GASTEIGER

@<TRIPOS>ATOM
      1 C          64.2862   82.8845   10.8831 C.3     1  UNL1        0.1321
      2 N          64.0885   82.7885   12.3669 N.ar    1  UNL1       -0.3058
      3 C          64.3401   83.8818   13.3625 C.ar    1  UNL1        0.0981
      4 C          64.0117   83.3513   14.7266 C.ar    1  UNL1        0.1193
      5 N          63.5571   81.9300   14.5740 N.ar    1  UNL1       -0.2223
      6 C          63.6046   81.5822   13.1157 C.ar    1  UNL1        0.1787
@<TRIPOS>BOND
     1     1     2    1
     2     2     3   ar
     3     3     4   ar
     4     4     5   ar
     5     5     6   ar
     6     6     2   ar
@<TRIPOS>MOLECULE
*****
 6 6 0 0 0
SMALL
GASTEIGER

@<TRIPOS>ATOM
      1 C          43.6920   69.6728   11.6318 C.3     1  UNL1        0.1321
      2 N          44.7693   69.6661   12.6757 N.ar    1  UNL1       -0.3058
      3 C          44.7841   70.4844   13.9327 C.ar    1  UNL1        0.0981
      4 C          46.0448   70.1639   14.6796 C.ar    1  UNL1        0.1193
      5 N          46.8091   69.1474   13.8843 N.ar    1  UNL1       -0.2223
      6 C          46.0208   68.8398   12.6457 C.ar    1  UNL1        0.1787
@<TRIPOS>BOND
     1     1     2    1
     2     2     3   ar
     3     3     4   ar
     4     4     5   ar
     5     5     6   ar
     6     6     2   ar
@<TRIPOS>MOLECULE
*****
 6 6 0 0 0
SMALL
GASTEIGER

@<TRIPOS>ATOM
      1 C          62.0050   85.3986   11.1127 C.3     1  UNL1        0.1321
      2 N          62.9868   84.2666   11.1804 N.ar    1  UNL1       -0.3058
      3 C          63.3548   83.4909   12.4104 C.ar    1  UNL1        0.0981
      4 C          64.3685   82.4564   12.0201 C.ar    1  UNL1        0.1193
      5 N          64.6269   82.5927   10.5488 N.ar    1  UNL1       -0.2223
      6 C          63.7731   83.7115   10.0299 C.ar    1  UNL1        0.1787
@<TRIPOS>BOND
     1     1     2    1
     2     2     3   ar
     3     3     4   ar
     4     4     5   ar
     5     5     6   ar
     6     6     2   ar
