@<TRIPOS>MOLECULE
*****
 31 35 0 0 0
SMALL
GASTEIGER

@<TRIPOS>ATOM
      1 O          61.2581   89.5694   10.1293 O.2     1  UNL1       -0.2744
      2 C          62.1801   89.0614   11.1979 C.2     1  UNL1        0.2322
      3 C          63.0679   90.0894   11.8343 C.3     1  UNL1        0.1309
      4 C          64.0873   89.9025   12.9187 C.2     1  UNL1        0.0682
      5 N          64.4705   88.6413   13.6346 N.2     1  UNL1       -0.2479
      6 C          63.9291   87.2556   13.4430 C.ar    1  UNL1        0.0943
      7 C          64.5895   86.2764   14.3677 C.ar    1  UNL1        0.0203
      8 C          64.1916   84.8305   14.3374 C.ar    1  UNL1        0.0017
      9 C          63.1332   84.3638   13.3824 C.ar    1  UNL1        0.0035
     10 C          62.4727   85.3429   12.4577 C.ar    1  UNL1        0.0163
     11 C          62.8707   86.7888   12.4880 C.ar    1  UNL1        0.0682
     12 N          62.0923   87.5925   11.4889 N.am    1  UNL1       -0.2824
     13 H          61.4372   87.0894   10.9532 H       1  UNL1        0.1549
     14 C          62.7352   82.9178   13.3522 C.ar    1  UNL1        0.0275
     15 C          61.7681   82.3847   14.3672 C.ar    1  UNL1        0.0022
     16 C          61.3701   80.9387   14.3370 C.ar    1  UNL1        0.0001
     17 C          61.9394   80.0259   13.2916 C.ar    1  UNL1        0.0023
     18 C          62.9066   80.5591   12.2765 C.ar    1  UNL1        0.0296
     19 C          63.3045   82.0050   12.3068 C.ar    1  UNL1        0.1401
     20 F          64.2717   82.5382   11.2917 F       1  UNL1       -0.2042
     21 C          64.8202   91.1404   13.3434 C.ar    1  UNL1        0.0155
     22 C          65.1618   91.3511   14.7888 C.ar    1  UNL1        0.0013
     23 C          65.8948   92.5890   15.2134 C.ar    1  UNL1        0.0015
     24 C          66.2862   93.6162   14.1927 C.ar    1  UNL1        0.0176
     25 C          65.9446   93.4054   12.7473 C.ar    1  UNL1        0.0656
     26 C          65.2116   92.1675   12.3227 C.ar    1  UNL1        0.0187
     27 N          66.3361   94.4326   11.7267 N.ar    1  UNL1       -0.2864
     28 C          66.8566   94.1519   10.3483 C.ar    1  UNL1        0.1022
     29 C          67.1179   95.4667    9.6749 C.ar    1  UNL1        0.1196
     30 N          66.7589   96.5598   10.6373 N.ar    1  UNL1       -0.2220
     31 C          66.2757   95.9207   11.9053 C.ar    1  UNL1        0.1828
@<TRIPOS>BOND
     1     1     2    2
     2     2     3    1
     3     3     4    1
     4     4    21    1
     5    21    22   ar
     6    22    23   ar
     7    23    24   ar
     8    24    25   ar
     9    25    27    1
    10    27    28   ar
    11    28    29   ar
    12    29    30   ar
    13    30    31   ar
    14    25    26   ar
    15     4     5    2
    16     5     6    1
    17     6     7   ar
    18     7     8   ar
    19     8     9   ar
    20     9    14    1
    21    14    15   ar
    22    15    16   ar
    23    16    17   ar
    24    17    18   ar
    25    18    19   ar
    26    19    20    1
    27     9    10   ar
    28    10    11   ar
    29    11    12    1
    30    12     2   am
    31    26    21   ar
    32    11     6   ar
    33    31    27   ar
    34    19    14   ar
    35    12    13    1
@<TRIPOS>MOLECULE
*****
 31 35 0 0 0
SMALL
GASTEIGER

@<TRIPOS>ATOM
      1 O          61.7519   89.3566   10.4373 O.2     1  UNL1       -0.2744
      2 C          62.4468   88.6161   11.5413 C.2     1  UNL1        0.2322
      3 C          63.0408   89.4683   12.6234 C.3     1  UNL1        0.1309
      4 C          63.7905   89.0362   13.8487 C.2     1  UNL1        0.0682
      5 N          64.1314   87.6452   14.2944 N.2     1  UNL1       -0.2479
      6 C          63.8068   86.3426   13.6250 C.ar    1  UNL1        0.0943
      7 C          64.3351   85.1774   14.4082 C.ar    1  UNL1        0.0203
      8 C          64.1177   83.7791   13.9108 C.ar    1  UNL1        0.0017
      9 C          63.3720   83.5460   12.6303 C.ar    1  UNL1        0.0035
     10 C          62.8437   84.7111   11.8472 C.ar    1  UNL1        0.0163
     11 C          63.0611   86.1094   12.3446 C.ar    1  UNL1        0.0682
     12 N          62.4559   87.1213   11.4172 N.am    1  UNL1       -0.2824
     13 H          62.0050   86.7559   10.6220 H       1  UNL1        0.1549
     14 C          63.1546   82.1476   12.1330 C.ar    1  UNL1        0.0275
     15 C          62.6587   81.0868   13.0704 C.ar    1  UNL1        0.0022
     16 C          62.4413   79.6884   12.5730 C.ar    1  UNL1        0.0001
     17 C          62.7198   79.3508   11.1383 C.ar    1  UNL1        0.0023
     18 C          63.2158   80.4117   10.2009 C.ar    1  UNL1        0.0296
     19 C          63.4331   81.8100   10.6982 C.ar    1  UNL1        0.1401
     20 F          63.9291   82.8709    9.7608 F       1  UNL1       -0.2042
     21 C          64.2616   90.1413   14.7469 C.ar    1  UNL1        0.0155
     22 C          63.3614   90.6660   15.8260 C.ar    1  UNL1        0.0013
     23 C          63.8325   91.7711   16.7242 C.ar    1  UNL1        0.0015
     24 C          65.2038   92.3515   16.5434 C.ar    1  UNL1        0.0176
     25 C          66.1040   91.8268   15.4643 C.ar    1  UNL1        0.0656
     26 C          65.6329   90.7217   14.5661 C.ar    1  UNL1        0.0187
     27 N          67.4753   92.4072   15.2835 N.ar    1  UNL1       -0.2864
     28 C          68.0534   93.5589   16.0511 C.ar    1  UNL1        0.1022
     29 C          69.4447   93.8013   15.5453 C.ar    1  UNL1        0.1196
     30 N          69.7263   92.7994   14.4651 N.ar    1  UNL1       -0.2220
     31 C          68.5092   91.9379   14.3033 C.ar    1  UNL1        0.1828
@<TRIPOS>BOND
     1     1     2    2
     2     2     3    1
     3     3     4    1
     4     4    21    1
     5    21    22   ar
     6    22    23   ar
     7    23    24   ar
     8    24    25   ar
     9    25    27    1
    10    27    28   ar
    11    28    29   ar
    12    29    30   ar
    13    30    31   ar
    14    25    26   ar
    15     4     5    2
    16     5     6    1
    17     6     7   ar
    18     7     8   ar
    19     8     9   ar
    20     9    14    1
    21    14    15   ar
    22    15    16   ar
    23    16    17   ar
    24    17    18   ar
    25    18    19   ar
    26    19    20    1
    27     9    10   ar
    28    10    11   ar
    29    11    12    1
    30    12     2   am
    31    26    21   ar
    32    11     6   ar
    33    31    27   ar
    34    19    14   ar
    35    12    13    1
@<TRIPOS>MOLECULE
*****
 31 35 0 0 0
SMALL
GASTEIGER

@<TRIPOS>ATOM
      1 O          62.3750   85.3521   12.8737 O.2     1  UNL1       -0.2744
      2 C          62.4506   86.7115   12.2443 C.2     1  UNL1        0.2322
      3 C          61.6033   86.9111   11.0226 C.3     1  UNL1        0.1309
      4 C          61.4596   88.1401   10.1746 C.2     1  UNL1        0.0682
      5 N          62.1277   89.4730   10.3390 N.2     1  UNL1       -0.2479
      6 C          63.1044   89.9062   11.3917 C.ar    1  UNL1        0.0943
      7 C          63.5316   91.3299   11.1904 C.ar    1  UNL1        0.0203
      8 C          64.5087   91.9608   12.1375 C.ar    1  UNL1        0.0017
      9 C          65.0586   91.1681   13.2860 C.ar    1  UNL1        0.0035
     10 C          64.6315   89.7444   13.4874 C.ar    1  UNL1        0.0163
     11 C          63.6544   89.1134   12.5402 C.ar    1  UNL1        0.0682
     12 N          63.3634   87.6917   12.9196 N.am    1  UNL1       -0.2824
     13 H          63.8337   87.3577   13.7174 H       1  UNL1        0.1549
     14 C          66.0358   91.7991   14.2332 C.ar    1  UNL1        0.0275
     15 C          65.6156   92.1285   15.6350 C.ar    1  UNL1        0.0022
     16 C          66.5927   92.7595   16.5822 C.ar    1  UNL1        0.0001
     17 C          67.9900   93.0610   16.1276 C.ar    1  UNL1        0.0023
     18 C          68.4101   92.7316   14.7257 C.ar    1  UNL1        0.0296
     19 C          67.4330   92.1006   13.7786 C.ar    1  UNL1        0.1401
     20 F          67.8532   91.7712   12.3768 F       1  UNL1       -0.2042
     21 C          60.5242   88.0203    9.0083 C.ar    1  UNL1        0.0155
     22 C          59.7929   86.7338    8.7624 C.ar    1  UNL1        0.0013
     23 C          58.8574   86.6140    7.5959 C.ar    1  UNL1        0.0015
     24 C          58.6532   87.7806    6.6754 C.ar    1  UNL1        0.0176
     25 C          59.3845   89.0671    6.9213 C.ar    1  UNL1        0.0656
     26 C          60.3199   89.1868    8.0877 C.ar    1  UNL1        0.0187
     27 N          59.1803   90.2336    6.0007 N.ar    1  UNL1       -0.2864
     28 C          60.2584   90.9870    5.2797 C.ar    1  UNL1        0.1022
     29 C          59.6065   92.0707    4.4730 C.ar    1  UNL1        0.1196
     30 N          58.1254   91.9869    4.6954 N.ar    1  UNL1       -0.2220
     31 C          57.8620   90.8516    5.6396 C.ar    1  UNL1        0.1828
@<TRIPOS>BOND
     1     1     2    2
     2     2     3    1
     3     3     4    1
     4     4    21    1
     5    21    22   ar
     6    22    23   ar
     7    23    24   ar
     8    24    25   ar
     9    25    27    1
    10    27    28   ar
    11    28    29   ar
    12    29    30   ar
    13    30    31   ar
    14    25    26   ar
    15     4     5    2
    16     5     6    1
    17     6     7   ar
    18     7     8   ar
    19     8     9   ar
    20     9    14    1
    21    14    15   ar
    22    15    16   ar
    23    16    17   ar
    24    17    18   ar
    25    18    19   ar
    26    19    20    1
    27     9    10   ar
    28    10    11   ar
    29    11    12    1
    30    12     2   am
    31    26    21   ar
    32    11     6   ar
    33    31    27   ar
    34    19    14   ar
    35    12    13    1
@<TRIPOS>MOLECULE
*****
 31 35 0 0 0
SMALL
GASTEIGER

@<TRIPOS>ATOM
      1 O          56.2594   91.9595    4.9043 O.2     1  UNL1       -0.2744
      2 C          57.7210   91.6239    4.8746 C.2     1  UNL1        0.2322
      3 C          58.1806   90.6264    5.8964 C.3     1  UNL1        0.1309
      4 C          59.5624   90.0888    6.1231 C.2     1  UNL1        0.0682
      5 N          60.8260   90.4158    5.3839 N.2     1  UNL1       -0.2479
      6 C          61.0199   91.3611    4.2355 C.ar    1  UNL1        0.0943
      7 C          62.4513   91.3940    3.7884 C.ar    1  UNL1        0.0203
      8 C          62.8608   92.2788    2.6485 C.ar    1  UNL1        0.0017
      9 C          61.8389   93.1307    1.9557 C.ar    1  UNL1        0.0035
     10 C          60.4075   93.0978    2.4028 C.ar    1  UNL1        0.0163
     11 C          59.9980   92.2130    3.5427 C.ar    1  UNL1        0.0682
     12 N          58.5299   92.3299    3.8272 N.am    1  UNL1       -0.2824
     13 H          58.0312   92.9524    3.2501 H       1  UNL1        0.1549
     14 C          62.2485   94.0155    0.8157 C.ar    1  UNL1        0.0275
     15 C          62.9759   95.2990    1.0864 C.ar    1  UNL1        0.0022
     16 C          63.3854   96.1838   -0.0535 C.ar    1  UNL1        0.0001
     17 C          63.0676   95.7850   -1.4642 C.ar    1  UNL1        0.0023
     18 C          62.3401   94.5014   -1.7348 C.ar    1  UNL1        0.0296
     19 C          61.9306   93.6167   -0.5949 C.ar    1  UNL1        0.1401
     20 F          61.2031   92.3330   -0.8656 F       1  UNL1       -0.2042
     21 C          59.6987   89.0924    7.2360 C.ar    1  UNL1        0.0155
     22 C          58.9411   87.7989    7.1816 C.ar    1  UNL1        0.0013
     23 C          59.0774   86.8025    8.2946 C.ar    1  UNL1        0.0015
     24 C          59.9712   87.0997    9.4619 C.ar    1  UNL1        0.0176
     25 C          60.7288   88.3932    9.5164 C.ar    1  UNL1        0.0656
     26 C          60.5925   89.3895    8.4034 C.ar    1  UNL1        0.0187
     27 N          61.6227   88.6903   10.6837 N.ar    1  UNL1       -0.2864
     28 C          61.8358   90.0361   11.3108 C.ar    1  UNL1        0.1022
     29 C          62.8052   89.8713   12.4436 C.ar    1  UNL1        0.1196
     30 N          63.1911   88.4236   12.5166 N.ar    1  UNL1       -0.2220
     31 C          62.4603   87.6938   11.4289 C.ar    1  UNL1        0.1828
@<TRIPOS>BOND
     1     1     2    2
     2     2     3    1
     3     3     4    1
     4     4    21    1
     5    21    22   ar
     6    22    23   ar
     7    23    24   ar
     8    24    25   ar
     9    25    27    1
    10    27    28   ar
    11    28    29   ar
    12    29    30   ar
    13    30    31   ar
    14    25    26   ar
    15     4     5    2
    16     5     6    1
    17     6     7   ar
    18     7     8   ar
    19     8     9   ar
    20     9    14    1
    21    14    15   ar
    22    15    16   ar
    23    16    17   ar
    24    17    18   ar
    25    18    19   ar
    26    19    20    1
    27     9    10   ar
    28    10    11   ar
    29    11    12    1
    30    12     2   am
    31    26    21   ar
    32    11     6   ar
    33    31    27   ar
    34    19    14   ar
    35    12    13    1
@<TRIPOS>MOLECULE
*****
 31 35 0 0 0
SMALL
GASTEIGER

@<TRIPOS>ATOM
      1 O          60.2512   88.0721    9.9156 O.2     1  UNL1       -0.2744
      2 C          61.2981   87.5074   10.8294 C.2     1  UNL1        0.2322
      3 C          62.0455   88.5082   11.6600 C.3     1  UNL1        0.1309
      4 C          63.1385   88.2653   12.6582 C.2     1  UNL1        0.0682
      5 N          63.7541   86.9617   13.0723 N.2     1  UNL1       -0.2479
      6 C          63.4288   85.5789   12.5905 C.ar    1  UNL1        0.0943
      7 C          64.2844   84.5480   13.2652 C.ar    1  UNL1        0.0203
      8 C          64.1188   83.0966   12.9250 C.ar    1  UNL1        0.0017
      9 C          63.0974   82.6759   11.9101 C.ar    1  UNL1        0.0035
     10 C          62.2418   83.7068   11.2355 C.ar    1  UNL1        0.0163
     11 C          62.4075   85.1582   11.5757 C.ar    1  UNL1        0.0682
     12 N          61.4592   86.0165   10.7919 N.am    1  UNL1       -0.2824
     13 H          60.8639   85.5381   10.1707 H       1  UNL1        0.1549
     14 C          62.9318   81.2244   11.5700 C.ar    1  UNL1        0.0275
     15 C          63.1185   80.7594   10.1562 C.ar    1  UNL1        0.0022
     16 C          62.9528   79.3078    9.8160 C.ar    1  UNL1        0.0001
     17 C          62.6004   78.3214   10.8897 C.ar    1  UNL1        0.0023
     18 C          62.4137   78.7865   12.3035 C.ar    1  UNL1        0.0296
     19 C          62.5793   80.2380   12.6436 C.ar    1  UNL1        0.1401
     20 F          62.3926   80.7031   14.0575 F       1  UNL1       -0.2042
     21 C          63.6886   89.4877   13.3312 C.ar    1  UNL1        0.0155
     22 C          63.6402   89.6070   14.8258 C.ar    1  UNL1        0.0013
     23 C          64.1904   90.8295   15.4988 C.ar    1  UNL1        0.0015
     24 C          64.7889   91.9326   14.6773 C.ar    1  UNL1        0.0176
     25 C          64.8373   91.8134   13.1828 C.ar    1  UNL1        0.0656
     26 C          64.2872   90.5909   12.5098 C.ar    1  UNL1        0.0187
     27 N          65.4359   92.9166   12.3614 N.ar    1  UNL1       -0.2864
     28 C          65.2072   93.1493   10.8974 C.ar    1  UNL1        0.1022
     29 C          65.9982   94.3573   10.4910 C.ar    1  UNL1        0.1196
     30 N          66.7158   94.8711   11.7039 N.ar    1  UNL1       -0.2220
     31 C          66.3682   93.9807   12.8598 C.ar    1  UNL1        0.1828
@<TRIPOS>BOND
     1     1     2    2
     2     2     3    1
     3     3     4    1
     4     4    21    1
     5    21    22   ar
     6    22    23   ar
     7    23    24   ar
     8    24    25   ar
     9    25    27    1
    10    27    28   ar
    11    28    29   ar
    12    29    30   ar
    13    30    31   ar
    14    25    26   ar
    15     4     5    2
    16     5     6    1
    17     6     7   ar
    18     7     8   ar
    19     8     9   ar
    20     9    14    1
    21    14    15   ar
    22    15    16   ar
    23    16    17   ar
    24    17    18   ar
    25    18    19   ar
    26    19    20    1
    27     9    10   ar
    28    10    11   ar
    29    11    12    1
    30    12     2   am
    31    26    21   ar
    32    11     6   ar
    33    31    27   ar
    34    19    14   ar
    35    12    13    1
@<TRIPOS>MOLECULE
*****
 31 35 0 0 0
SMALL
GASTEIGER

@<TRIPOS>ATOM
      1 O          60.4371   88.1556    8.7187 O.2     1  UNL1       -0.2744
      2 C          61.3773   87.9134    9.8621 C.2     1  UNL1        0.2322
      3 C          62.1835   89.0986   10.3041 C.3     1  UNL1        0.1309
      4 C          63.1984   89.1812   11.4055 C.2     1  UNL1        0.0682
      5 N          63.6578   88.0989   12.3369 N.2     1  UNL1       -0.2479
      6 C          63.2158   86.6667   12.3971 C.ar    1  UNL1        0.0943
      7 C          63.9295   85.9181   13.4834 C.ar    1  UNL1        0.0203
      8 C          63.6325   84.4659   13.7132 C.ar    1  UNL1        0.0017
      9 C          62.6218   83.7623   12.8567 C.ar    1  UNL1        0.0035
     10 C          61.9082   84.5110   11.7704 C.ar    1  UNL1        0.0163
     11 C          62.2052   85.9632   11.5405 C.ar    1  UNL1        0.0682
     12 N          61.3870   86.5180   10.4124 N.am    1  UNL1       -0.2824
     13 H          60.7754   85.8823    9.9753 H       1  UNL1        0.1549
     14 C          62.3249   82.3100   13.0866 C.ar    1  UNL1        0.0275
     15 C          61.4453   81.8960   14.2289 C.ar    1  UNL1        0.0022
     16 C          61.1484   80.4437   14.4587 C.ar    1  UNL1        0.0001
     17 C          61.7310   79.4055   13.5462 C.ar    1  UNL1        0.0023
     18 C          62.6106   79.8196   12.4039 C.ar    1  UNL1        0.0296
     19 C          62.9076   81.2718   12.1741 C.ar    1  UNL1        0.1401
     20 F          63.7872   81.6859   11.0317 F       1  UNL1       -0.2042
     21 C          63.8385   90.5235   11.6014 C.ar    1  UNL1        0.0155
     22 C          63.7542   91.5596   10.5199 C.ar    1  UNL1        0.0013
     23 C          64.3943   92.9020   10.7159 C.ar    1  UNL1        0.0015
     24 C          65.1188   93.2082   11.9931 C.ar    1  UNL1        0.0176
     25 C          65.2032   92.1721   13.0745 C.ar    1  UNL1        0.0656
     26 C          64.5630   90.8297   12.8786 C.ar    1  UNL1        0.0187
     27 N          65.9277   92.4783   14.3518 N.ar    1  UNL1       -0.2864
     28 C          67.3202   93.0236   14.4664 C.ar    1  UNL1        0.1022
     29 C          67.6400   93.1753   15.9242 C.ar    1  UNL1        0.1196
     30 N          66.4450   92.7237   16.7103 N.ar    1  UNL1       -0.2220
     31 C          65.3868   92.2929   15.7385 C.ar    1  UNL1        0.1828
@<TRIPOS>BOND
     1     1     2    2
     2     2     3    1
     3     3     4    1
     4     4    21    1
     5    21    22   ar
     6    22    23   ar
     7    23    24   ar
     8    24    25   ar
     9    25    27    1
    10    27    28   ar
    11    28    29   ar
    12    29    30   ar
    13    30    31   ar
    14    25    26   ar
    15     4     5    2
    16     5     6    1
    17     6     7   ar
    18     7     8   ar
    19     8     9   ar
    20     9    14    1
    21    14    15   ar
    22    15    16   ar
    23    16    17   ar
    24    17    18   ar
    25    18    19   ar
    26    19    20    1
    27     9    10   ar
    28    10    11   ar
    29    11    12    1
    30    12     2   am
    31    26    21   ar
    32    11     6   ar
    33    31    27   ar
    34    19    14   ar
    35    12    13    1
