@<TRIPOS>MOLECULE
*****
 32 36 0 0 0
SMALL
GASTEIGER

@<TRIPOS>ATOM
      1 O          61.0286   94.4411   -0.2105 O.2     1  UNL1       -0.2526
      2 C          61.8738   93.3994    0.4609 C.2     1  UNL1        0.3039
      3 N          63.2093   93.0320   -0.1149 N.am    1  UNL1       -0.2904
      4 N          61.3836   92.7253    1.7079 N.am    1  UNL1       -0.2642
      5 C          60.0481   93.0928    2.2837 C.3     1  UNL1        0.0954
      6 C          59.5578   92.4187    3.5307 C.3     1  UNL1        0.0309
      7 C          60.4031   91.3770    4.2021 C.3     1  UNL1        0.0827
      8 C          61.7385   91.0096    3.6263 C.3     1  UNL1        0.0309
      9 C          62.2288   91.6837    2.3792 C.3     1  UNL1        0.0954
     10 H          63.7640   92.3484    0.3257 H       1  UNL1        0.1509
     11 C          63.6995   93.7061   -1.3620 C.3     1  UNL1        0.0737
     12 C          63.2487   93.0919   -2.6541 C.3     1  UNL1        0.0243
     13 C          63.5628   93.5252   -4.0553 C.3     1  UNL1        0.0277
     14 C          64.4053   94.6797   -4.5107 C.ar    1  UNL1       -0.0261
     15 C          64.4616   94.7604   -6.0074 C.ar    1  UNL1       -0.0046
     16 C          65.2544   95.8473   -6.6706 C.ar    1  UNL1       -0.0003
     17 C          65.9909   96.8537   -5.8370 C.ar    1  UNL1       -0.0003
     18 C          65.9346   96.7731   -4.3403 C.ar    1  UNL1       -0.0046
     19 C          65.1418   95.6861   -3.6771 C.ar    1  UNL1       -0.0261
     20 C          65.2176   95.7865   -2.1824 C.3     1  UNL1        0.0277
     21 C          64.5758   94.9054   -1.1520 C.3     1  UNL1        0.0243
     22 C          59.9128   90.7029    5.4491 C.ar    1  UNL1        0.2362
     23 N          60.7693   90.1838    6.5658 N.ar    1  UNL1       -0.1895
     24 C          59.8658   89.5896    7.6053 C.ar    1  UNL1        0.2210
     25 N          58.4509   89.7414    7.1311 N.ar    1  UNL1       -0.0544
     26 O          58.4798   90.4295    5.7985 O.2     1  UNL1       -0.3370
     27 C          60.3008   88.9550    8.8929 C.ar    1  UNL1        0.1203
     28 C          60.8833   89.8004    9.9865 C.ar    1  UNL1        0.0224
     29 C          61.3183   89.1657   11.2741 C.ar    1  UNL1        0.0032
     30 C          61.1708   87.6856   11.4681 C.ar    1  UNL1        0.0207
     31 C          60.5884   86.8402   10.3745 C.ar    1  UNL1        0.0989
     32 N          60.1534   87.4749    9.0869 N.ar    1  UNL1       -0.2406
@<TRIPOS>BOND
     1     1     2    2
     2     2     3   am
     3     3    11    1
     4    11    12    1
     5    12    13    1
     6    13    14    1
     7    14    15   ar
     8    15    16   ar
     9    16    17   ar
    10    17    18   ar
    11    18    19   ar
    12    19    20    1
    13    20    21    1
    14     2     4   am
    15     4     5    1
    16     5     6    1
    17     6     7    1
    18     7    22    1
    19    22    23   ar
    20    23    24   ar
    21    24    27    1
    22    27    28   ar
    23    28    29   ar
    24    29    30   ar
    25    30    31   ar
    26    31    32   ar
    27    24    25   ar
    28    25    26   ar
    29     7     8    1
    30     8     9    1
    31    21    11    1
    32     9     4    1
    33    19    14   ar
    34    26    22   ar
    35    32    27   ar
    36     3    10    1
@<TRIPOS>MOLECULE
*****
 32 36 0 0 0
SMALL
GASTEIGER

@<TRIPOS>ATOM
      1 O          57.7215   92.3548    3.0526 O.2     1  UNL1       -0.2526
      2 C          59.1279   92.0107    3.4448 C.2     1  UNL1        0.3039
      3 N          60.2741   92.4343    2.5749 N.am    1  UNL1       -0.2904
      4 N          59.3880   91.2429    4.7069 N.am    1  UNL1       -0.2642
      5 C          58.2417   90.8194    5.5768 C.3     1  UNL1        0.0954
      6 C          58.5017   90.0516    6.8390 C.3     1  UNL1        0.0309
      7 C          59.9081   89.7075    7.2312 C.3     1  UNL1        0.0827
      8 C          61.0543   90.1311    6.3613 C.3     1  UNL1        0.0309
      9 C          60.7942   90.8988    5.0992 C.3     1  UNL1        0.0954
     10 H          61.1971   92.2084    2.8324 H       1  UNL1        0.1509
     11 C          60.0140   93.2020    1.3128 C.3     1  UNL1        0.0737
     12 C          59.9344   94.6924    1.4624 C.3     1  UNL1        0.0243
     13 C          59.6890   95.7267    0.4040 C.3     1  UNL1        0.0277
     14 C          59.4627   95.5261   -1.0652 C.ar    1  UNL1       -0.0261
     15 C          59.2559   96.8332   -1.7713 C.ar    1  UNL1       -0.0046
     16 C          59.0122   96.8558   -3.2512 C.ar    1  UNL1       -0.0003
     17 C          58.9753   95.5713   -4.0249 C.ar    1  UNL1       -0.0003
     18 C          59.1821   94.2642   -3.3188 C.ar    1  UNL1       -0.0046
     19 C          59.4258   94.2416   -1.8389 C.ar    1  UNL1       -0.0261
     20 C          59.6062   92.8405   -1.3345 C.3     1  UNL1        0.0277
     21 C          59.8679   92.3778    0.0681 C.3     1  UNL1        0.0243
     22 C          60.1682   88.9397    8.4933 C.ar    1  UNL1        0.2362
     23 N          61.0754   87.7533    8.6325 N.ar    1  UNL1       -0.1895
     24 C          61.0346   87.3039   10.0631 C.ar    1  UNL1        0.2210
     25 N          60.1023   88.2127   10.8080 N.ar    1  UNL1       -0.0544
     26 O          59.5667   89.2237    9.8378 O.2     1  UNL1       -0.3370
     27 C          61.7930   86.1487   10.6463 C.ar    1  UNL1        0.1203
     28 C          62.5412   85.2113    9.7456 C.ar    1  UNL1        0.0224
     29 C          63.2996   84.0560   10.3289 C.ar    1  UNL1        0.0032
     30 C          63.3098   83.8383   11.8130 C.ar    1  UNL1        0.0207
     31 C          62.5617   84.7758   12.7137 C.ar    1  UNL1        0.0989
     32 N          61.8033   85.9310   12.1304 N.ar    1  UNL1       -0.2406
@<TRIPOS>BOND
     1     1     2    2
     2     2     3   am
     3     3    11    1
     4    11    12    1
     5    12    13    1
     6    13    14    1
     7    14    15   ar
     8    15    16   ar
     9    16    17   ar
    10    17    18   ar
    11    18    19   ar
    12    19    20    1
    13    20    21    1
    14     2     4   am
    15     4     5    1
    16     5     6    1
    17     6     7    1
    18     7    22    1
    19    22    23   ar
    20    23    24   ar
    21    24    27    1
    22    27    28   ar
    23    28    29   ar
    24    29    30   ar
    25    30    31   ar
    26    31    32   ar
    27    24    25   ar
    28    25    26   ar
    29     7     8    1
    30     8     9    1
    31    21    11    1
    32     9     4    1
    33    19    14   ar
    34    26    22   ar
    35    32    27   ar
    36     3    10    1
@<TRIPOS>MOLECULE
*****
 32 36 0 0 0
SMALL
GASTEIGER

@<TRIPOS>ATOM
      1 O          61.4076   87.6255   11.5881 O.2     1  UNL1       -0.2526
      2 C          61.2638   87.0909   10.1939 C.2     1  UNL1        0.3039
      3 N          61.6630   85.6778    9.8877 N.am    1  UNL1       -0.2904
      4 N          60.7206   87.9694    9.1061 N.am    1  UNL1       -0.2642
      5 C          60.3214   89.3825    9.4125 C.3     1  UNL1        0.0954
      6 C          59.7782   90.2609    8.3247 C.3     1  UNL1        0.0309
      7 C          59.6344   89.7263    6.9305 C.3     1  UNL1        0.0827
      8 C          60.0337   88.3133    6.6243 C.3     1  UNL1        0.0309
      9 C          60.5768   87.4348    7.7121 C.3     1  UNL1        0.0954
     10 H          61.5686   85.3270    8.9727 H       1  UNL1        0.1509
     11 C          62.2062   84.7994   10.9755 C.3     1  UNL1        0.0737
     12 C          62.6728   85.5082   12.2123 C.3     1  UNL1        0.0243
     13 C          63.2594   84.9209   13.4617 C.3     1  UNL1        0.0277
     14 C          63.5242   83.4798   13.7830 C.ar    1  UNL1       -0.0261
     15 C          64.1227   83.3240   15.1495 C.ar    1  UNL1       -0.0046
     16 C          64.4649   81.9583   15.6670 C.ar    1  UNL1       -0.0003
     17 C          64.2085   80.7486   14.8181 C.ar    1  UNL1       -0.0003
     18 C          63.6099   80.9044   13.4516 C.ar    1  UNL1       -0.0046
     19 C          63.2678   82.2701   12.9340 C.ar    1  UNL1       -0.0261
     20 C          62.6833   82.2027   11.5542 C.3     1  UNL1        0.0277
     21 C          62.2108   83.3282   10.6825 C.3     1  UNL1        0.0243
     22 C          59.0913   90.6048    5.8427 C.ar    1  UNL1        0.2362
     23 N          59.9024   91.3623    4.8337 N.ar    1  UNL1       -0.1895
     24 C          58.9541   92.1056    3.9403 C.ar    1  UNL1        0.2210
     25 N          57.5568   91.8076    4.3972 N.ar    1  UNL1       -0.0544
     26 O          57.6415   90.8799    5.5730 O.2     1  UNL1       -0.3370
     27 C          59.3360   92.9915    2.7917 C.ar    1  UNL1        0.1203
     28 C          59.0430   92.5631    1.3844 C.ar    1  UNL1        0.0224
     29 C          59.4249   93.4490    0.2358 C.ar    1  UNL1        0.0032
     30 C          60.0997   94.7635    0.4946 C.ar    1  UNL1        0.0207
     31 C          60.3926   95.1919    1.9019 C.ar    1  UNL1        0.0989
     32 N          60.0108   94.3060    3.0505 N.ar    1  UNL1       -0.2406
@<TRIPOS>BOND
     1     1     2    2
     2     2     3   am
     3     3    11    1
     4    11    12    1
     5    12    13    1
     6    13    14    1
     7    14    15   ar
     8    15    16   ar
     9    16    17   ar
    10    17    18   ar
    11    18    19   ar
    12    19    20    1
    13    20    21    1
    14     2     4   am
    15     4     5    1
    16     5     6    1
    17     6     7    1
    18     7    22    1
    19    22    23   ar
    20    23    24   ar
    21    24    27    1
    22    27    28   ar
    23    28    29   ar
    24    29    30   ar
    25    30    31   ar
    26    31    32   ar
    27    24    25   ar
    28    25    26   ar
    29     7     8    1
    30     8     9    1
    31    21    11    1
    32     9     4    1
    33    19    14   ar
    34    26    22   ar
    35    32    27   ar
    36     3    10    1
@<TRIPOS>MOLECULE
*****
 32 36 0 0 0
SMALL
GASTEIGER

@<TRIPOS>ATOM
      1 O          61.3578   87.6137   11.6034 O.2     1  UNL1       -0.2526
      2 C          61.2462   87.0956   10.2001 C.2     1  UNL1        0.3039
      3 N          61.6744   85.6937    9.8819 N.am    1  UNL1       -0.2904
      4 N          60.7063   87.9794    9.1151 N.am    1  UNL1       -0.2642
      5 C          60.2780   89.3814    9.4333 C.3     1  UNL1        0.0954
      6 C          59.7381   90.2652    8.3482 C.3     1  UNL1        0.0309
      7 C          59.6264   89.7471    6.9450 C.3     1  UNL1        0.0827
      8 C          60.0547   88.3452    6.6268 C.3     1  UNL1        0.0309
      9 C          60.5946   87.4614    7.7118 C.3     1  UNL1        0.0954
     10 H          61.6011   85.3537    8.9609 H       1  UNL1        0.1509
     11 C          62.2143   84.8099   10.9670 C.3     1  UNL1        0.0737
     12 C          62.1944   83.3382   10.6778 C.3     1  UNL1        0.0243
     13 C          62.6580   82.2078   11.5480 C.3     1  UNL1        0.0277
     14 C          63.2561   82.2698   12.9222 C.ar    1  UNL1       -0.0261
     15 C          63.5826   80.9005   13.4402 C.ar    1  UNL1       -0.0046
     16 C          64.1912   80.7390   14.8016 C.ar    1  UNL1       -0.0003
     17 C          64.4733   81.9469   15.6450 C.ar    1  UNL1       -0.0003
     18 C          64.1468   83.3162   15.1271 C.ar    1  UNL1       -0.0046
     19 C          63.5382   83.4777   13.7657 C.ar    1  UNL1       -0.0261
     20 C          63.2919   84.9218   13.4432 C.3     1  UNL1        0.0277
     21 C          62.7028   85.5147   12.1977 C.3     1  UNL1        0.0243
     22 C          59.0865   90.6309    5.8599 C.ar    1  UNL1        0.2362
     23 N          59.8982   91.3564    4.8281 N.ar    1  UNL1       -0.1895
     24 C          58.9535   92.1183    3.9466 C.ar    1  UNL1        0.2210
     25 N          57.5578   91.8637    4.4337 N.ar    1  UNL1       -0.0544
     26 O          57.6399   90.9444    5.6162 O.2     1  UNL1       -0.3370
     27 C          59.3370   92.9830    2.7825 C.ar    1  UNL1        0.1203
     28 C          58.9773   92.5654    1.3874 C.ar    1  UNL1        0.0224
     29 C          59.3609   93.4301    0.2234 C.ar    1  UNL1        0.0032
     30 C          60.1041   94.7125    0.4544 C.ar    1  UNL1        0.0207
     31 C          60.4637   95.1300    1.8494 C.ar    1  UNL1        0.0989
     32 N          60.0802   94.2653    3.0135 N.ar    1  UNL1       -0.2406
@<TRIPOS>BOND
     1     1     2    2
     2     2     3   am
     3     3    11    1
     4    11    12    1
     5    12    13    1
     6    13    14    1
     7    14    15   ar
     8    15    16   ar
     9    16    17   ar
    10    17    18   ar
    11    18    19   ar
    12    19    20    1
    13    20    21    1
    14     2     4   am
    15     4     5    1
    16     5     6    1
    17     6     7    1
    18     7    22    1
    19    22    23   ar
    20    23    24   ar
    21    24    27    1
    22    27    28   ar
    23    28    29   ar
    24    29    30   ar
    25    30    31   ar
    26    31    32   ar
    27    24    25   ar
    28    25    26   ar
    29     7     8    1
    30     8     9    1
    31    21    11    1
    32     9     4    1
    33    19    14   ar
    34    26    22   ar
    35    32    27   ar
    36     3    10    1
@<TRIPOS>MOLECULE
*****
 32 36 0 0 0
SMALL
GASTEIGER

@<TRIPOS>ATOM
      1 O          58.9695   93.6618    1.0199 O.2     1  UNL1       -0.2526
      2 C          60.1922   92.9410    1.5052 C.2     1  UNL1        0.3039
      3 N          61.4389   92.9335    0.6712 N.am    1  UNL1       -0.2904
      4 N          60.1682   92.2277    2.8245 N.am    1  UNL1       -0.2642
      5 C          58.9214   92.2352    3.6585 C.3     1  UNL1        0.0954
      6 C          58.8973   91.5219    4.9779 C.3     1  UNL1        0.0309
      7 C          60.1200   90.8011    5.4632 C.3     1  UNL1        0.0827
      8 C          61.3667   90.7936    4.6292 C.3     1  UNL1        0.0309
      9 C          61.3908   91.5069    3.3098 C.3     1  UNL1        0.0954
     10 H          62.2414   92.4604    0.9897 H       1  UNL1        0.1509
     11 C          61.4630   93.6467   -0.6482 C.3     1  UNL1        0.0737
     12 C          62.5240   94.6959   -0.8015 C.3     1  UNL1        0.0243
     13 C          62.8069   95.5740   -1.9843 C.3     1  UNL1        0.0277
     14 C          62.0987   95.6198   -3.3058 C.ar    1  UNL1       -0.0261
     15 C          62.7026   96.6480   -4.2158 C.ar    1  UNL1       -0.0046
     16 C          62.1404   96.8552   -5.5909 C.ar    1  UNL1       -0.0003
     17 C          60.9744   96.0342   -6.0561 C.ar    1  UNL1       -0.0003
     18 C          60.3706   95.0060   -5.1461 C.ar    1  UNL1       -0.0046
     19 C          60.9327   94.7988   -3.7710 C.ar    1  UNL1       -0.0261
     20 C          60.1869   93.7292   -3.0294 C.3     1  UNL1        0.0277
     21 C          60.4229   93.2165   -1.6397 C.3     1  UNL1        0.0243
     22 C          60.0960   90.0878    6.7825 C.ar    1  UNL1        0.2362
     23 N          61.1731   90.1269    7.8257 N.ar    1  UNL1       -0.1895
     24 C          60.7334   89.2735    8.9783 C.ar    1  UNL1        0.2210
     25 N          59.3845   88.7069    8.6474 N.ar    1  UNL1       -0.0544
     26 O          58.9905   89.2102    7.2903 O.2     1  UNL1       -0.3370
     27 C          61.5067   89.0294   10.2401 C.ar    1  UNL1        0.1203
     28 C          61.9218   87.6357   10.6076 C.ar    1  UNL1        0.0224
     29 C          62.6952   87.3916   11.8695 C.ar    1  UNL1        0.0032
     30 C          63.0534   88.5414   12.7639 C.ar    1  UNL1        0.0207
     31 C          62.6383   89.9351   12.3963 C.ar    1  UNL1        0.0989
     32 N          61.8649   90.1791   11.1344 N.ar    1  UNL1       -0.2406
@<TRIPOS>BOND
     1     1     2    2
     2     2     3   am
     3     3    11    1
     4    11    12    1
     5    12    13    1
     6    13    14    1
     7    14    15   ar
     8    15    16   ar
     9    16    17   ar
    10    17    18   ar
    11    18    19   ar
    12    19    20    1
    13    20    21    1
    14     2     4   am
    15     4     5    1
    16     5     6    1
    17     6     7    1
    18     7    22    1
    19    22    23   ar
    20    23    24   ar
    21    24    27    1
    22    27    28   ar
    23    28    29   ar
    24    29    30   ar
    25    30    31   ar
    26    31    32   ar
    27    24    25   ar
    28    25    26   ar
    29     7     8    1
    30     8     9    1
    31    21    11    1
    32     9     4    1
    33    19    14   ar
    34    26    22   ar
    35    32    27   ar
    36     3    10    1
@<TRIPOS>MOLECULE
*****
 32 36 0 0 0
SMALL
GASTEIGER

@<TRIPOS>ATOM
      1 O          57.6453   92.3654    2.6306 O.2     1  UNL1       -0.2526
      2 C          59.0627   92.1258    3.0593 C.2     1  UNL1        0.3039
      3 N          60.1966   92.6180    2.2097 N.am    1  UNL1       -0.2904
      4 N          59.3461   91.3940    4.3377 N.am    1  UNL1       -0.2642
      5 C          58.2121   90.9019    5.1873 C.3     1  UNL1        0.0954
      6 C          58.4954   90.1701    6.4657 C.3     1  UNL1        0.0309
      7 C          59.9128   89.9305    6.8944 C.3     1  UNL1        0.0827
      8 C          61.0467   90.4226    6.0448 C.3     1  UNL1        0.0309
      9 C          60.7634   91.1544    4.7664 C.3     1  UNL1        0.0954
     10 H          61.1269   92.4607    2.4910 H       1  UNL1        0.1509
     11 C          59.9133   93.3498    0.9313 C.3     1  UNL1        0.0737
     12 C          59.9846   92.5255   -0.3199 C.3     1  UNL1        0.0243
     13 C          59.7562   92.9571   -1.7383 C.3     1  UNL1        0.0277
     14 C          59.4003   94.3193   -2.2557 C.ar    1  UNL1       -0.0261
     15 C          59.2627   94.3194   -3.7494 C.ar    1  UNL1       -0.0046
     16 C          58.9095   95.5867   -4.4698 C.ar    1  UNL1       -0.0003
     17 C          58.6940   96.8539   -3.6967 C.ar    1  UNL1       -0.0003
     18 C          58.8316   96.8538   -2.2030 C.ar    1  UNL1       -0.0046
     19 C          59.1847   95.5865   -1.4825 C.ar    1  UNL1       -0.0261
     20 C          59.2719   95.8044   -0.0010 C.3     1  UNL1        0.0277
     21 C          59.5961   94.8090    1.0733 C.3     1  UNL1        0.0243
     22 C          60.1962   89.1987    8.1728 C.ar    1  UNL1        0.2362
     23 N          61.3147   89.4930    9.1279 N.ar    1  UNL1       -0.1895
     24 C          61.2206   88.5203   10.2659 C.ar    1  UNL1        0.2210
     25 N          60.0439   87.6248   10.0141 N.ar    1  UNL1       -0.0544
     26 O          59.4107   88.0440    8.7205 O.2     1  UNL1       -0.3370
     27 C          62.1414   88.4546   11.4480 C.ar    1  UNL1        0.1203
     28 C          62.5772   89.7173   12.1304 C.ar    1  UNL1        0.0224
     29 C          63.4981   89.6516   13.3126 C.ar    1  UNL1        0.0032
     30 C          63.9832   88.3231   13.8125 C.ar    1  UNL1        0.0207
     31 C          63.5474   87.0604   13.1301 C.ar    1  UNL1        0.0989
     32 N          62.6265   87.1261   11.9479 N.ar    1  UNL1       -0.2406
@<TRIPOS>BOND
     1     1     2    2
     2     2     3   am
     3     3    11    1
     4    11    12    1
     5    12    13    1
     6    13    14    1
     7    14    15   ar
     8    15    16   ar
     9    16    17   ar
    10    17    18   ar
    11    18    19   ar
    12    19    20    1
    13    20    21    1
    14     2     4   am
    15     4     5    1
    16     5     6    1
    17     6     7    1
    18     7    22    1
    19    22    23   ar
    20    23    24   ar
    21    24    27    1
    22    27    28   ar
    23    28    29   ar
    24    29    30   ar
    25    30    31   ar
    26    31    32   ar
    27    24    25   ar
    28    25    26   ar
    29     7     8    1
    30     8     9    1
    31    21    11    1
    32     9     4    1
    33    19    14   ar
    34    26    22   ar
    35    32    27   ar
    36     3    10    1
@<TRIPOS>MOLECULE
*****
 32 36 0 0 0
SMALL
GASTEIGER

@<TRIPOS>ATOM
      1 O          59.0700   88.2681    8.2190 O.2     1  UNL1       -0.2526
      2 C          60.2696   88.8178    7.5056 C.2     1  UNL1        0.3039
      3 N          61.6464   88.3726    7.9007 N.am    1  UNL1       -0.2904
      4 N          60.0923   89.8126    6.3970 N.am    1  UNL1       -0.2642
      5 C          58.7154   90.2577    6.0019 C.3     1  UNL1        0.0954
      6 C          58.5380   91.2525    4.8933 C.3     1  UNL1        0.0309
      7 C          59.7376   91.8022    4.1799 C.3     1  UNL1        0.0827
      8 C          61.1145   91.3571    4.5750 C.3     1  UNL1        0.0309
      9 C          61.2918   90.3623    5.6836 C.3     1  UNL1        0.0954
     10 H          62.4337   88.7334    7.4324 H       1  UNL1        0.1509
     11 C          61.8238   87.3778    9.0093 C.3     1  UNL1        0.0737
     12 C          62.1586   85.9796    8.5815 C.3     1  UNL1        0.0243
     13 C          62.3952   84.7711    9.4380 C.3     1  UNL1        0.0277
     14 C          62.3554   84.6621   10.9335 C.ar    1  UNL1       -0.0261
     15 C          62.6521   83.2642   11.3892 C.ar    1  UNL1       -0.0046
     16 C          62.6625   82.9391   12.8535 C.ar    1  UNL1       -0.0003
     17 C          62.3763   84.0119   13.8620 C.ar    1  UNL1       -0.0003
     18 C          62.0796   85.4098   13.4063 C.ar    1  UNL1       -0.0046
     19 C          62.0691   85.7349   11.9420 C.ar    1  UNL1       -0.0261
     20 C          61.7520   87.1816   11.7040 C.3     1  UNL1        0.0277
     21 C          61.6428   87.9128   10.3989 C.3     1  UNL1        0.0243
     22 C          59.5603   92.7970    3.0713 C.ar    1  UNL1        0.2362
     23 N          59.0171   92.5058    1.7038 N.ar    1  UNL1       -0.1895
     24 C          59.0161   93.7865    0.9229 C.ar    1  UNL1        0.2210
     25 N          59.5587   94.8693    1.8079 N.ar    1  UNL1       -0.0544
     26 O          59.8950   94.2579    3.1357 O.2     1  UNL1       -0.3370
     27 C          58.5538   93.9549   -0.4940 C.ar    1  UNL1        0.1203
     28 C          58.9421   92.9466   -1.5345 C.ar    1  UNL1        0.0224
     29 C          58.4797   93.1151   -2.9514 C.ar    1  UNL1        0.0032
     30 C          57.6290   94.2918   -3.3279 C.ar    1  UNL1        0.0207
     31 C          57.2407   95.3000   -2.2874 C.ar    1  UNL1        0.0989
     32 N          57.7031   95.1316   -0.8705 N.ar    1  UNL1       -0.2406
@<TRIPOS>BOND
     1     1     2    2
     2     2     3   am
     3     3    11    1
     4    11    12    1
     5    12    13    1
     6    13    14    1
     7    14    15   ar
     8    15    16   ar
     9    16    17   ar
    10    17    18   ar
    11    18    19   ar
    12    19    20    1
    13    20    21    1
    14     2     4   am
    15     4     5    1
    16     5     6    1
    17     6     7    1
    18     7    22    1
    19    22    23   ar
    20    23    24   ar
    21    24    27    1
    22    27    28   ar
    23    28    29   ar
    24    29    30   ar
    25    30    31   ar
    26    31    32   ar
    27    24    25   ar
    28    25    26   ar
    29     7     8    1
    30     8     9    1
    31    21    11    1
    32     9     4    1
    33    19    14   ar
    34    26    22   ar
    35    32    27   ar
    36     3    10    1
