@<TRIPOS>MOLECULE
*****
 23 25 0 0 0
SMALL
GASTEIGER

@<TRIPOS>ATOM
      1 C          63.3261   84.1824   13.9874 C.3     1  UNL1        0.1883
      2 F          61.3772   86.6504    9.8509 F       1  UNL1       -0.2033
      3 C          62.2703   85.5945   10.4320 C.ar    1  UNL1        0.1504
      4 C          62.3517   85.4164   11.9191 C.ar    1  UNL1        0.0297
      5 C          63.2447   84.3605   12.5002 C.ar    1  UNL1        0.0195
      6 C          64.0563   83.4828   11.5942 C.ar    1  UNL1        0.0002
      7 C          63.9749   83.6610   10.1071 C.ar    1  UNL1        0.0135
      8 C          63.0819   84.7169    9.5260 C.ar    1  UNL1        0.0850
      9 CL         63.0004   84.8950    8.0388 Cl      1  UNL1       -0.0799
     10 C          62.3887   83.2398   14.6823 C.3     1  UNL1        0.0510
     11 C          62.2370   81.8321   14.1871 C.3     1  UNL1        0.0354
     12 C          63.1776   80.7777   13.6835 C.3     1  UNL1        0.0700
     13 N          62.0224   79.8412   13.4869 N.3     1  UNL1       -0.2974
     14 C          61.0819   80.8956   13.9905 C.3     1  UNL1        0.0700
     15 H          62.0607   79.0048   14.0693 H       1  UNL1        0.1232
     16 O          64.3449   84.9467   14.7797 O.3     1  UNL1       -0.4747
     17 C          63.9866   86.2738   15.3802 C.ar    1  UNL1        0.1397
     18 C          63.2703   86.3323   16.6968 C.ar    1  UNL1        0.0370
     19 C          62.9119   87.6593   17.2973 C.ar    1  UNL1        0.0040
     20 C          63.2699   88.9278   16.5812 C.ar    1  UNL1        0.0116
     21 C          63.9862   88.8693   15.2646 C.ar    1  UNL1        0.0607
     22 CL         64.3442   90.1378   14.5485 Cl      1  UNL1       -0.0821
     23 C          64.3446   87.5423   14.6641 C.ar    1  UNL1        0.0483
@<TRIPOS>BOND
     1     2     3    1
     2     3     4   ar
     3     4     5   ar
     4     5     1    1
     5     1    10    1
     6    10    11    1
     7    11    12    1
     8    12    13    1
     9    13    14    1
    10     1    16    1
    11    16    17    1
    12    17    18   ar
    13    18    19   ar
    14    19    20   ar
    15    20    21   ar
    16    21    22    1
    17    21    23   ar
    18     5     6   ar
    19     6     7   ar
    20     7     8   ar
    21     8     9    1
    22     8     3   ar
    23    14    11    1
    24    23    17   ar
    25    13    15    1
@<TRIPOS>MOLECULE
*****
 23 25 0 0 0
SMALL
GASTEIGER

@<TRIPOS>ATOM
      1 C          62.0770   86.5360   10.6879 C.3     1  UNL1        0.1883
      2 F          64.3003   81.8743   10.1168 F       1  UNL1       -0.2033
      3 C          63.7191   82.9367   11.0020 C.ar    1  UNL1        0.1504
      4 C          63.1886   84.2051   10.4024 C.ar    1  UNL1        0.0297
      5 C          62.6075   85.2675   11.2876 C.ar    1  UNL1        0.0195
      6 C          62.5568   85.0614   12.7725 C.ar    1  UNL1        0.0002
      7 C          63.0872   83.7930   13.3721 C.ar    1  UNL1        0.0135
      8 C          63.6684   82.7306   12.4869 C.ar    1  UNL1        0.0850
      9 CL         64.1989   81.4621   13.0866 Cl      1  UNL1       -0.0799
     10 C          61.9410   86.6622    9.1994 C.3     1  UNL1        0.0510
     11 C          60.5796   86.6943    8.5707 C.3     1  UNL1        0.0354
     12 C          59.3420   87.5200    8.7623 C.3     1  UNL1        0.0700
     13 N          58.6541   86.7397    7.6815 N.3     1  UNL1       -0.2974
     14 C          59.8917   85.9141    7.4899 C.3     1  UNL1        0.0700
     15 H          58.3945   87.2962    6.8670 H       1  UNL1        0.1232
     16 O          61.6825   87.6781   11.5766 O.3     1  UNL1       -0.4747
     17 C          62.4708   88.9541   11.5525 C.ar    1  UNL1        0.1397
     18 C          62.3927   89.8615   10.3607 C.ar    1  UNL1        0.0370
     19 C          63.1809   91.1375   10.3366 C.ar    1  UNL1        0.0040
     20 C          64.0472   91.5060   11.5044 C.ar    1  UNL1        0.0116
     21 C          64.1253   90.5986   12.6963 C.ar    1  UNL1        0.0607
     22 CL         64.9916   90.9671   13.8640 Cl      1  UNL1       -0.0821
     23 C          63.3371   89.3226   12.7203 C.ar    1  UNL1        0.0483
@<TRIPOS>BOND
     1     2     3    1
     2     3     4   ar
     3     4     5   ar
     4     5     1    1
     5     1    10    1
     6    10    11    1
     7    11    12    1
     8    12    13    1
     9    13    14    1
    10     1    16    1
    11    16    17    1
    12    17    18   ar
    13    18    19   ar
    14    19    20   ar
    15    20    21   ar
    16    21    22    1
    17    21    23   ar
    18     5     6   ar
    19     6     7   ar
    20     7     8   ar
    21     8     9    1
    22     8     3   ar
    23    14    11    1
    24    23    17   ar
    25    13    15    1
@<TRIPOS>MOLECULE
*****
 23 25 0 0 0
SMALL
GASTEIGER

@<TRIPOS>ATOM
      1 C          62.0960   86.4760   10.6884 C.3     1  UNL1        0.1883
      2 F          62.9336   83.4784   14.8493 F       1  UNL1       -0.2033
      3 C          63.0396   83.7073   13.3707 C.ar    1  UNL1        0.1504
      4 C          62.5148   84.9771   12.7689 C.ar    1  UNL1        0.0297
      5 C          62.6208   85.2061   11.2902 C.ar    1  UNL1        0.0195
      6 C          63.2515   84.1653   10.4134 C.ar    1  UNL1        0.0002
      7 C          63.7763   82.8955   11.0152 C.ar    1  UNL1        0.0135
      8 C          63.6703   82.6665   12.4939 C.ar    1  UNL1        0.0850
      9 CL         64.1951   81.3967   13.0957 Cl      1  UNL1       -0.0799
     10 C          61.9766   86.6067    9.1989 C.3     1  UNL1        0.0510
     11 C          60.6220   86.6552    8.5565 C.3     1  UNL1        0.0354
     12 C          59.9315   85.8755    7.4770 C.3     1  UNL1        0.0700
     13 N          58.7063   86.7238    7.6480 N.3     1  UNL1       -0.2974
     14 C          59.3968   87.5035    8.7275 C.3     1  UNL1        0.0700
     15 H          57.8849   86.2096    7.9662 H       1  UNL1        0.1232
     16 O          61.6907   87.6151   11.5761 O.3     1  UNL1       -0.4747
     17 C          62.4652   88.8994   11.5490 C.ar    1  UNL1        0.1397
     18 C          62.3748   89.8047   10.3564 C.ar    1  UNL1        0.0370
     19 C          63.1492   91.0890   10.3292 C.ar    1  UNL1        0.0040
     20 C          64.0141   91.4681   11.4946 C.ar    1  UNL1        0.0116
     21 C          64.1045   90.5629   12.6873 C.ar    1  UNL1        0.0607
     22 CL         64.9693   90.9420   13.8528 Cl      1  UNL1       -0.0821
     23 C          63.3300   89.2785   12.7145 C.ar    1  UNL1        0.0483
@<TRIPOS>BOND
     1     2     3    1
     2     3     4   ar
     3     4     5   ar
     4     5     1    1
     5     1    10    1
     6    10    11    1
     7    11    12    1
     8    12    13    1
     9    13    14    1
    10     1    16    1
    11    16    17    1
    12    17    18   ar
    13    18    19   ar
    14    19    20   ar
    15    20    21   ar
    16    21    22    1
    17    21    23   ar
    18     5     6   ar
    19     6     7   ar
    20     7     8   ar
    21     8     9    1
    22     8     3   ar
    23    14    11    1
    24    23    17   ar
    25    13    15    1
@<TRIPOS>MOLECULE
*****
 23 25 0 0 0
SMALL
GASTEIGER

@<TRIPOS>ATOM
      1 C          61.9777   87.1084   10.5717 C.3     1  UNL1        0.1883
      2 F          64.5333   89.4606   14.4365 F       1  UNL1       -0.2033
      3 C          63.8749   89.5187   13.0900 C.ar    1  UNL1        0.1504
      4 C          63.2555   88.2845   12.5041 C.ar    1  UNL1        0.0297
      5 C          62.5971   88.3426   11.1576 C.ar    1  UNL1        0.0195
      6 C          62.5581   89.6348   10.3970 C.ar    1  UNL1        0.0002
      7 C          63.1775   90.8690   10.9828 C.ar    1  UNL1        0.0135
      8 C          63.8359   90.8109   12.3294 C.ar    1  UNL1        0.0850
      9 CL         64.4552   92.0451   12.9152 Cl      1  UNL1       -0.0799
     10 C          61.8088   86.9869    9.0862 C.3     1  UNL1        0.0510
     11 C          60.4805   87.2833    8.4557 C.3     1  UNL1        0.0354
     12 C          59.3875   86.4563    7.8463 C.3     1  UNL1        0.0700
     13 N          58.6019   87.7026    7.5640 N.3     1  UNL1       -0.2974
     14 C          59.6949   88.5296    8.1734 C.3     1  UNL1        0.0700
     15 H          57.7129   87.7560    8.0611 H       1  UNL1        0.1232
     16 O          61.5273   85.9959   11.4713 O.3     1  UNL1       -0.4747
     17 C          62.4698   84.8805   11.8143 C.ar    1  UNL1        0.1397
     18 C          63.1365   84.0991   10.7212 C.ar    1  UNL1        0.0370
     19 C          64.0790   82.9837   11.0641 C.ar    1  UNL1        0.0040
     20 C          64.3547   82.6496   12.5002 C.ar    1  UNL1        0.0116
     21 C          63.6879   83.4309   13.5934 C.ar    1  UNL1        0.0607
     22 CL         63.9636   83.0968   15.0294 Cl      1  UNL1       -0.0821
     23 C          62.7455   84.5464   13.2504 C.ar    1  UNL1        0.0483
@<TRIPOS>BOND
     1     2     3    1
     2     3     4   ar
     3     4     5   ar
     4     5     1    1
     5     1    10    1
     6    10    11    1
     7    11    12    1
     8    12    13    1
     9    13    14    1
    10     1    16    1
    11    16    17    1
    12    17    18   ar
    13    18    19   ar
    14    19    20   ar
    15    20    21   ar
    16    21    22    1
    17    21    23   ar
    18     5     6   ar
    19     6     7   ar
    20     7     8   ar
    21     8     9    1
    22     8     3   ar
    23    14    11    1
    24    23    17   ar
    25    13    15    1
@<TRIPOS>MOLECULE
*****
 23 25 0 0 0
SMALL
GASTEIGER

@<TRIPOS>ATOM
      1 C          62.0646   87.1485   10.7383 C.3     1  UNL1        0.1883
      2 F          63.3445   92.1170    9.9156 F       1  UNL1       -0.2033
      3 C          63.3270   90.9104   10.8067 C.ar    1  UNL1        0.1504
      4 C          62.7046   89.6328   10.3270 C.ar    1  UNL1        0.0297
      5 C          62.6870   88.4263   11.2181 C.ar    1  UNL1        0.0195
      6 C          63.2919   88.4974   12.5888 C.ar    1  UNL1        0.0002
      7 C          63.9142   89.7751   13.0686 C.ar    1  UNL1        0.0135
      8 C          63.9318   90.9816   12.1775 C.ar    1  UNL1        0.0850
      9 CL         64.5542   92.2593   12.6573 Cl      1  UNL1       -0.0799
     10 C          61.8953   86.9025    9.2683 C.3     1  UNL1        0.0510
     11 C          60.5205   86.8413    8.6716 C.3     1  UNL1        0.0354
     12 C          59.2427   87.6011    8.8715 C.3     1  UNL1        0.0700
     13 N          58.5763   86.7549    7.8276 N.3     1  UNL1       -0.2974
     14 C          59.8541   85.9951    7.6277 C.3     1  UNL1        0.0700
     15 H          58.2674   87.2739    7.0056 H       1  UNL1        0.1232
     16 O          61.6115   86.1170   11.7285 O.3     1  UNL1       -0.4747
     17 C          62.4946   84.9481   12.0510 C.ar    1  UNL1        0.1397
     18 C          63.2567   84.9178   13.3425 C.ar    1  UNL1        0.0370
     19 C          64.1398   83.7489   13.6650 C.ar    1  UNL1        0.0040
     20 C          64.2607   82.6104   12.6960 C.ar    1  UNL1        0.0116
     21 C          63.4985   82.6407   11.4043 C.ar    1  UNL1        0.0607
     22 CL         63.6193   81.5021   10.4353 Cl      1  UNL1       -0.0821
     23 C          62.6154   83.8095   11.0818 C.ar    1  UNL1        0.0483
@<TRIPOS>BOND
     1     2     3    1
     2     3     4   ar
     3     4     5   ar
     4     5     1    1
     5     1    10    1
     6    10    11    1
     7    11    12    1
     8    12    13    1
     9    13    14    1
    10     1    16    1
    11    16    17    1
    12    17    18   ar
    13    18    19   ar
    14    19    20   ar
    15    20    21   ar
    16    21    22    1
    17    21    23   ar
    18     5     6   ar
    19     6     7   ar
    20     7     8   ar
    21     8     9    1
    22     8     3   ar
    23    14    11    1
    24    23    17   ar
    25    13    15    1
@<TRIPOS>MOLECULE
*****
 23 25 0 0 0
SMALL
GASTEIGER

@<TRIPOS>ATOM
      1 C          63.3351   84.1185   13.9040 C.3     1  UNL1        0.1883
      2 F          64.7223   82.7120    9.0980 F       1  UNL1       -0.2033
      3 C          63.9416   83.6056   10.0157 C.ar    1  UNL1        0.1504
      4 C          64.0287   83.4153   11.5010 C.ar    1  UNL1        0.0297
      5 C          63.2480   84.3089   12.4186 C.ar    1  UNL1        0.0195
      6 C          62.3803   85.3927   11.8510 C.ar    1  UNL1        0.0002
      7 C          62.2932   85.5830   10.3657 C.ar    1  UNL1        0.0135
      8 C          63.0739   84.6895    9.4480 C.ar    1  UNL1        0.0850
      9 CL         62.9868   84.8798    7.9626 Cl      1  UNL1       -0.0799
     10 C          62.3904   83.1817   14.5967 C.3     1  UNL1        0.0510
     11 C          62.2591   81.7640   14.1246 C.3     1  UNL1        0.0354
     12 C          61.1168   80.8105   13.9356 C.3     1  UNL1        0.0700
     13 N          62.0735   79.7591   13.4568 N.3     1  UNL1       -0.2974
     14 C          63.2159   80.7127   13.6458 C.3     1  UNL1        0.0700
     15 H          61.9265   79.4719   12.4892 H       1  UNL1        0.1232
     16 O          64.3669   84.8650   14.6966 O.3     1  UNL1       -0.4747
     17 C          63.9880   86.1178   15.4293 C.ar    1  UNL1        0.1397
     18 C          64.1730   87.4546   14.7746 C.ar    1  UNL1        0.0370
     19 C          63.7941   88.7074   15.5074 C.ar    1  UNL1        0.0040
     20 C          63.2302   88.6234   16.8948 C.ar    1  UNL1        0.0116
     21 C          63.0452   87.2865   17.5495 C.ar    1  UNL1        0.0607
     22 CL         62.4813   87.2025   18.9369 Cl      1  UNL1       -0.0821
     23 C          63.4241   86.0337   16.8168 C.ar    1  UNL1        0.0483
@<TRIPOS>BOND
     1     2     3    1
     2     3     4   ar
     3     4     5   ar
     4     5     1    1
     5     1    10    1
     6    10    11    1
     7    11    12    1
     8    12    13    1
     9    13    14    1
    10     1    16    1
    11    16    17    1
    12    17    18   ar
    13    18    19   ar
    14    19    20   ar
    15    20    21   ar
    16    21    22    1
    17    21    23   ar
    18     5     6   ar
    19     6     7   ar
    20     7     8   ar
    21     8     9    1
    22     8     3   ar
    23    14    11    1
    24    23    17   ar
    25    13    15    1
@<TRIPOS>MOLECULE
*****
 23 25 0 0 0
SMALL
GASTEIGER

@<TRIPOS>ATOM
      1 C          63.6631   89.9604   13.3717 C.3     1  UNL1        0.1883
      2 F          66.9897   93.9049   13.9838 F       1  UNL1       -0.2033
      3 C          66.0596   93.1132   13.1132 C.ar    1  UNL1        0.1504
      4 C          65.3264   91.9327   13.6777 C.ar    1  UNL1        0.0297
      5 C          64.3963   91.1409   12.8071 C.ar    1  UNL1        0.0195
      6 C          64.1994   91.5297   11.3718 C.ar    1  UNL1        0.0002
      7 C          64.9326   92.7102   10.8072 C.ar    1  UNL1        0.0135
      8 C          65.8627   93.5019   11.6779 C.ar    1  UNL1        0.0850
      9 CL         66.5959   94.6825   11.1132 Cl      1  UNL1       -0.0799
     10 C          64.4014   88.9363   14.1818 C.3     1  UNL1        0.0510
     11 C          63.7873   88.3862   15.4348 C.3     1  UNL1        0.0354
     12 C          63.1167   88.9815   16.6372 C.3     1  UNL1        0.0700
     13 N          62.9189   87.6081   17.2069 N.3     1  UNL1       -0.2974
     14 C          63.5895   87.0127   16.0045 C.3     1  UNL1        0.0700
     15 H          61.9410   87.3388   17.3144 H       1  UNL1        0.1232
     16 O          62.1916   89.8040   13.1264 O.3     1  UNL1       -0.4747
     17 C          61.6986   89.3587   11.7815 C.ar    1  UNL1        0.1397
     18 C          60.6129   90.1273   11.0884 C.ar    1  UNL1        0.0370
     19 C          60.1200   89.6820    9.7436 C.ar    1  UNL1        0.0040
     20 C          60.7127   88.4681    9.0917 C.ar    1  UNL1        0.0116
     21 C          61.7985   87.6993    9.7848 C.ar    1  UNL1        0.0607
     22 CL         62.3913   86.4854    9.1330 Cl      1  UNL1       -0.0821
     23 C          62.2915   88.1446   11.1297 C.ar    1  UNL1        0.0483
@<TRIPOS>BOND
     1     2     3    1
     2     3     4   ar
     3     4     5   ar
     4     5     1    1
     5     1    10    1
     6    10    11    1
     7    11    12    1
     8    12    13    1
     9    13    14    1
    10     1    16    1
    11    16    17    1
    12    17    18   ar
    13    18    19   ar
    14    19    20   ar
    15    20    21   ar
    16    21    22    1
    17    21    23   ar
    18     5     6   ar
    19     6     7   ar
    20     7     8   ar
    21     8     9    1
    22     8     3   ar
    23    14    11    1
    24    23    17   ar
    25    13    15    1
@<TRIPOS>MOLECULE
*****
 23 25 0 0 0
SMALL
GASTEIGER

@<TRIPOS>ATOM
      1 C          61.6602   87.3538   10.9405 C.3     1  UNL1        0.1883
      2 F          64.7073   90.0280   14.1907 F       1  UNL1       -0.2033
      3 C          63.9622   89.9307   12.8925 C.ar    1  UNL1        0.1504
      4 C          63.1837   88.6909   12.5656 C.ar    1  UNL1        0.0297
      5 C          62.4386   88.5936   11.2674 C.ar    1  UNL1        0.0195
      6 C          62.4720   89.7361   10.2961 C.ar    1  UNL1        0.0002
      7 C          63.2504   90.9759   10.6229 C.ar    1  UNL1        0.0135
      8 C          63.9955   91.0732   11.9212 C.ar    1  UNL1        0.0850
      9 CL         64.7740   92.3131   12.2480 Cl      1  UNL1       -0.0799
     10 C          61.0748   87.1750    9.5711 C.3     1  UNL1        0.0510
     11 C          61.7025   86.2125    8.6070 C.3     1  UNL1        0.0354
     12 C          61.2237   85.4473    7.4089 C.3     1  UNL1        0.0700
     13 N          62.5902   84.8514    7.2434 N.3     1  UNL1       -0.2974
     14 C          63.0691   85.6166    8.4414 C.3     1  UNL1        0.0700
     15 H          63.0541   85.1088    6.3722 H       1  UNL1        0.1232
     16 O          61.4671   86.2928   11.9831 O.3     1  UNL1       -0.4747
     17 C          62.4958   85.2149   12.1557 C.ar    1  UNL1        0.1397
     18 C          63.4820   85.2929   13.2832 C.ar    1  UNL1        0.0370
     19 C          64.5107   84.2150   13.4559 C.ar    1  UNL1        0.0040
     20 C          64.5532   83.0590   12.5010 C.ar    1  UNL1        0.0116
     21 C          63.5670   82.9809   11.3734 C.ar    1  UNL1        0.0607
     22 CL         63.6095   81.8249   10.4186 Cl      1  UNL1       -0.0821
     23 C          62.5383   84.0588   11.2008 C.ar    1  UNL1        0.0483
@<TRIPOS>BOND
     1     2     3    1
     2     3     4   ar
     3     4     5   ar
     4     5     1    1
     5     1    10    1
     6    10    11    1
     7    11    12    1
     8    12    13    1
     9    13    14    1
    10     1    16    1
    11    16    17    1
    12    17    18   ar
    13    18    19   ar
    14    19    20   ar
    15    20    21   ar
    16    21    22    1
    17    21    23   ar
    18     5     6   ar
    19     6     7   ar
    20     7     8   ar
    21     8     9    1
    22     8     3   ar
    23    14    11    1
    24    23    17   ar
    25    13    15    1
@<TRIPOS>MOLECULE
*****
 23 25 0 0 0
SMALL
GASTEIGER

@<TRIPOS>ATOM
      1 C          63.2055   85.8860   13.0381 C.3     1  UNL1        0.1883
      2 F          63.1040   90.8333   11.4527 F       1  UNL1       -0.2033
      3 C          63.5052   89.8015   12.4649 C.ar    1  UNL1        0.1504
      4 C          63.1548   88.3597   12.2454 C.ar    1  UNL1        0.0297
      5 C          63.5559   87.3279   13.2576 C.ar    1  UNL1        0.0195
      6 C          64.3074   87.7380   14.4892 C.ar    1  UNL1        0.0002
      7 C          64.6578   89.1798   14.7087 C.ar    1  UNL1        0.0135
      8 C          64.2567   90.2116   13.6965 C.ar    1  UNL1        0.0850
      9 CL         64.6071   91.6536   13.9160 Cl      1  UNL1       -0.0799
     10 C          64.0858   84.8070   13.5955 C.3     1  UNL1        0.0510
     11 C          63.4844   83.5139   14.0606 C.3     1  UNL1        0.0354
     12 C          63.6581   82.0703   13.6924 C.3     1  UNL1        0.0700
     13 N          62.6338   81.6853   14.7184 N.3     1  UNL1       -0.2974
     14 C          62.4601   83.1290   15.0866 C.3     1  UNL1        0.0700
     15 H          62.9985   81.1040   15.4731 H       1  UNL1        0.1232
     16 O          61.9747   85.5231   12.2612 O.3     1  UNL1       -0.4747
     17 C          62.0106   85.5116   10.7617 C.ar    1  UNL1        0.1397
     18 C          63.1130   84.7915   10.0433 C.ar    1  UNL1        0.0370
     19 C          63.1489   84.7800    8.5438 C.ar    1  UNL1        0.0040
     20 C          62.0824   85.4887    7.7626 C.ar    1  UNL1        0.0116
     21 C          60.9799   86.2088    8.4809 C.ar    1  UNL1        0.0607
     22 CL         59.9134   86.9175    7.6998 Cl      1  UNL1       -0.0821
     23 C          60.9440   86.2203    9.9805 C.ar    1  UNL1        0.0483
@<TRIPOS>BOND
     1     2     3    1
     2     3     4   ar
     3     4     5   ar
     4     5     1    1
     5     1    10    1
     6    10    11    1
     7    11    12    1
     8    12    13    1
     9    13    14    1
    10     1    16    1
    11    16    17    1
    12    17    18   ar
    13    18    19   ar
    14    19    20   ar
    15    20    21   ar
    16    21    22    1
    17    21    23   ar
    18     5     6   ar
    19     6     7   ar
    20     7     8   ar
    21     8     9    1
    22     8     3   ar
    23    14    11    1
    24    23    17   ar
    25    13    15    1
