@<TRIPOS>MOLECULE
*****
 10 11 0 0 0
SMALL
GASTEIGER

@<TRIPOS>ATOM
      1 CL         61.2554   81.1335   14.1949 Cl      1  UNL1       -0.0633
      2 C          62.4127   82.0768   14.0508 C.2     1  UNL1        0.1543
      3 N          62.8751   82.8820   15.2289 N.2     1  UNL1       -0.1898
      4 C          64.0323   83.8252   15.0849 C.2     1  UNL1        0.3395
      5 N          64.7274   83.9634   13.7628 N.2     1  UNL1       -0.0101
      6 C          64.2651   83.1582   12.5848 C.2     1  UNL1        0.3841
      7 N          64.7505   83.0834   11.1675 N.2     1  UNL1       -0.0105
      8 C          63.8931   82.0938   10.4355 C.2     1  UNL1        0.3352
      9 N          62.8778   81.5570   11.4004 N.2     1  UNL1       -0.2077
     10 C          63.1077   82.2149   12.7288 C.3     1  UNL1        0.2683
@<TRIPOS>BOND
     1     1     2    1
     2     2     3    2
     3     3     4    1
     4     4     5    2
     5     5     6    1
     6     6     7    2
     7     7     8    1
     8     8     9    2
     9     9    10    1
    10    10     2    1
    11    10     6    1
@<TRIPOS>MOLECULE
*****
 10 11 0 0 0
SMALL
GASTEIGER

@<TRIPOS>ATOM
      1 CL         62.3785   85.0284   11.4302 Cl      1  UNL1       -0.0633
      2 C          62.8661   84.4387   12.7204 C.2     1  UNL1        0.1543
      3 N          63.3370   85.3374   13.8252 N.2     1  UNL1       -0.1898
      4 C          63.8245   84.7478   15.1153 C.2     1  UNL1        0.3395
      5 N          63.8412   83.2594   15.3008 N.2     1  UNL1       -0.0101
      6 C          63.3703   82.3607   14.1960 C.2     1  UNL1        0.3841
      7 N          63.2716   80.8677   14.0900 N.2     1  UNL1       -0.0105
      8 C          62.7230   80.5346   12.7342 C.2     1  UNL1        0.3352
      9 N          62.4827   81.8217   12.0024 N.2     1  UNL1       -0.2077
     10 C          62.8828   82.9503   12.9058 C.3     1  UNL1        0.2683
@<TRIPOS>BOND
     1     1     2    1
     2     2     3    2
     3     3     4    1
     4     4     5    2
     5     5     6    1
     6     6     7    2
     7     7     8    1
     8     8     9    2
     9     9    10    1
    10    10     2    1
    11    10     6    1
@<TRIPOS>MOLECULE
*****
 10 11 0 0 0
SMALL
GASTEIGER

@<TRIPOS>ATOM
      1 CL         68.5765   92.3647    8.7013 Cl      1  UNL1       -0.0633
      2 C          67.8336   93.1180    9.7647 C.2     1  UNL1        0.1543
      3 N          67.4412   92.4278   11.0373 N.2     1  UNL1       -0.1898
      4 C          66.6984   93.1809   12.1007 C.2     1  UNL1        0.3395
      5 N          66.3479   94.6244   11.8915 N.2     1  UNL1       -0.0101
      6 C          66.7403   95.3146   10.6189 C.2     1  UNL1        0.3841
      7 N          66.5338   96.7189   10.1338 N.2     1  UNL1       -0.0105
      8 C          67.1490   96.8335    8.7706 C.2     1  UNL1        0.3352
      9 N          67.7358   95.5002    8.4132 N.2     1  UNL1       -0.2077
     10 C          67.4832   94.5613    9.5555 C.3     1  UNL1        0.2683
@<TRIPOS>BOND
     1     1     2    1
     2     2     3    2
     3     3     4    1
     4     4     5    2
     5     5     6    1
     6     6     7    2
     7     7     8    1
     8     8     9    2
     9     9    10    1
    10    10     2    1
    11    10     6    1
@<TRIPOS>MOLECULE
*****
 10 11 0 0 0
SMALL
GASTEIGER

@<TRIPOS>ATOM
      1 CL         62.1341   80.0263   13.3281 Cl      1  UNL1       -0.0633
      2 C          62.8985   81.1268   12.6538 C.2     1  UNL1        0.1543
      3 N          63.0913   81.1038   11.1664 N.2     1  UNL1       -0.1898
      4 C          63.8557   82.2042   10.4921 C.2     1  UNL1        0.3395
      5 N          64.4273   83.3277   11.3052 N.2     1  UNL1       -0.0101
      6 C          64.2346   83.3507   12.7925 C.2     1  UNL1        0.3841
      7 N          64.6788   84.3203   13.8473 N.2     1  UNL1       -0.0105
      8 C          64.1890   83.8191   15.1735 C.2     1  UNL1        0.3352
      9 N          63.4420   82.5397   14.9384 N.2     1  UNL1       -0.2077
     10 C          63.4702   82.2503   13.4669 C.3     1  UNL1        0.2683
@<TRIPOS>BOND
     1     1     2    1
     2     2     3    2
     3     3     4    1
     4     4     5    2
     5     5     6    1
     6     6     7    2
     7     7     8    1
     8     8     9    2
     9     9    10    1
    10    10     2    1
    11    10     6    1
@<TRIPOS>MOLECULE
*****
 10 11 0 0 0
SMALL
GASTEIGER

@<TRIPOS>ATOM
      1 CL         64.2612   82.9073   10.6196 Cl      1  UNL1       -0.0633
      2 C          63.6319   82.3721   11.8716 C.2     1  UNL1        0.1543
      3 N          63.0024   81.0107   11.8718 N.2     1  UNL1       -0.1898
      4 C          62.3731   80.4755   13.1238 C.2     1  UNL1        0.3395
      5 N          62.3733   81.3019   14.3757 N.2     1  UNL1       -0.0101
      6 C          63.0029   82.6634   14.3755 C.2     1  UNL1        0.3841
      7 N          63.1542   83.6993   15.4497 N.2     1  UNL1       -0.0105
      8 C          63.8770   84.8747   14.8615 C.2     1  UNL1        0.3352
      9 N          64.1724   84.5652   13.4239 N.2     1  UNL1       -0.2077
     10 C          63.6322   83.1985   13.1235 C.3     1  UNL1        0.2683
@<TRIPOS>BOND
     1     1     2    1
     2     2     3    2
     3     3     4    1
     4     4     5    2
     5     5     6    1
     6     6     7    2
     7     7     8    1
     8     8     9    2
     9     9    10    1
    10    10     2    1
    11    10     6    1
@<TRIPOS>MOLECULE
*****
 10 11 0 0 0
SMALL
GASTEIGER

@<TRIPOS>ATOM
      1 CL         68.5831   92.3220    8.7375 Cl      1  UNL1       -0.0633
      2 C          67.8037   93.5191    9.1952 C.2     1  UNL1        0.1543
      3 N          67.5776   94.6695    8.2595 N.2     1  UNL1       -0.1898
      4 C          66.7982   95.8665    8.7172 C.2     1  UNL1        0.3395
      5 N          66.2447   95.9132   10.1106 N.2     1  UNL1       -0.0101
      6 C          66.4708   94.7628   11.0463 C.2     1  UNL1        0.3841
      7 N          66.0501   94.5267   12.4666 N.2     1  UNL1       -0.0105
      8 C          66.5696   93.1837   12.8867 C.2     1  UNL1        0.3352
      9 N          67.3113   92.5898   11.7260 N.2     1  UNL1       -0.2077
     10 C          67.2502   93.5657   10.5886 C.3     1  UNL1        0.2683
@<TRIPOS>BOND
     1     1     2    1
     2     2     3    2
     3     3     4    1
     4     4     5    2
     5     5     6    1
     6     6     7    2
     7     7     8    1
     8     8     9    2
     9     9    10    1
    10    10     2    1
    11    10     6    1
@<TRIPOS>MOLECULE
*****
 10 11 0 0 0
SMALL
GASTEIGER

@<TRIPOS>ATOM
      1 CL         64.2155   90.1636   13.4015 Cl      1  UNL1       -0.0633
      2 C          65.0726   91.3440   13.7509 C.2     1  UNL1        0.1543
      3 N          65.5361   91.5424   15.1636 N.2     1  UNL1       -0.1898
      4 C          66.3931   92.7228   15.5129 C.2     1  UNL1        0.3395
      5 N          66.7867   93.7049   14.4495 N.2     1  UNL1       -0.0101
      6 C          66.3232   93.5064   13.0368 C.2     1  UNL1        0.3841
      7 N          66.5496   94.3015   11.7852 N.2     1  UNL1       -0.0105
      8 C          65.8325   93.6124   10.6623 C.2     1  UNL1        0.3352
      9 N          65.1628   92.3915   11.2199 N.2     1  UNL1       -0.2077
     10 C          65.4661   92.3260   12.6875 C.3     1  UNL1        0.2683
@<TRIPOS>BOND
     1     1     2    1
     2     2     3    2
     3     3     4    1
     4     4     5    2
     5     5     6    1
     6     6     7    2
     7     7     8    1
     8     8     9    2
     9     9    10    1
    10    10     2    1
    11    10     6    1
@<TRIPOS>MOLECULE
*****
 10 11 0 0 0
SMALL
GASTEIGER

@<TRIPOS>ATOM
      1 CL         62.3816   84.3683   15.8175 Cl      1  UNL1       -0.0633
      2 C          62.5380   84.1110   14.3481 C.2     1  UNL1        0.1543
      3 N          62.6656   85.2619   13.3945 N.2     1  UNL1       -0.1898
      4 C          62.8220   85.0046   11.9252 C.2     1  UNL1        0.3395
      5 N          62.8508   83.5964   11.4091 N.2     1  UNL1       -0.0101
      6 C          62.7232   82.4455   12.3626 C.2     1  UNL1        0.3841
      7 N          62.7172   80.9609   12.1487 N.2     1  UNL1       -0.0105
      8 C          62.5572   80.3006   13.4860 C.2     1  UNL1        0.3352
      9 N          62.4642   81.3772   14.5264 N.2     1  UNL1       -0.2077
     10 C          62.5668   82.7028   13.8321 C.3     1  UNL1        0.2683
@<TRIPOS>BOND
     1     1     2    1
     2     2     3    2
     3     3     4    1
     4     4     5    2
     5     5     6    1
     6     6     7    2
     7     7     8    1
     8     8     9    2
     9     9    10    1
    10    10     2    1
    11    10     6    1
@<TRIPOS>MOLECULE
*****
 10 11 0 0 0
SMALL
GASTEIGER

@<TRIPOS>ATOM
      1 CL         63.7204   90.8134   11.7898 Cl      1  UNL1       -0.0633
      2 C          64.7102   91.9402   11.8096 C.2     1  UNL1        0.1543
      3 N          65.0416   92.6698   10.5416 N.2     1  UNL1       -0.1898
      4 C          66.0314   93.7966   10.5614 C.2     1  UNL1        0.3395
      5 N          66.6899   94.1939   11.8492 N.2     1  UNL1       -0.0101
      6 C          66.3586   93.4644   13.1172 C.2     1  UNL1        0.3841
      7 N          66.8442   93.6302   14.5268 N.2     1  UNL1       -0.0105
      8 C          66.1544   92.6058   15.3781 C.2     1  UNL1        0.3352
      9 N          65.2425   91.8069   14.4948 N.2     1  UNL1       -0.2077
     10 C          65.3687   92.3375   13.0974 C.3     1  UNL1        0.2683
@<TRIPOS>BOND
     1     1     2    1
     2     2     3    2
     3     3     4    1
     4     4     5    2
     5     5     6    1
     6     6     7    2
     7     7     8    1
     8     8     9    2
     9     9    10    1
    10    10     2    1
    11    10     6    1
