@<TRIPOS>MOLECULE
*****
 23 27 0 0 0
SMALL
GASTEIGER

@<TRIPOS>ATOM
      1 C          60.9254   89.8674    9.3139 C.3     1  UNL1        0.0221
      2 C          60.7686   88.3766    9.3661 C.3     1  UNL1        0.0809
      3 C          60.0141   89.0306    8.2467 C.3     1  UNL1        0.0218
      4 C          59.2983   87.9575    7.4812 C.3     1  UNL1        0.0191
      5 C          59.6103   86.6403    8.1274 C.3     1  UNL1        0.0727
      6 N          60.5191   86.8993    9.2923 N.3     1  UNL1       -0.2653
      7 C          61.1516   85.9808   10.2955 C.3     1  UNL1        0.1202
      8 C          62.0337   86.5396   11.3723 C.2     1  UNL1        0.0903
      9 N          62.5618   85.4561   12.2653 N.2     1  UNL1       -0.1822
     10 N          63.4698   85.5823   13.4525 N.am    1  UNL1       -0.2029
     11 C          64.0741   86.8232   14.0400 C.2     1  UNL1        0.2612
     12 O          64.9485   86.6155   15.2409 O.2     1  UNL1       -0.2687
     13 C          63.9195   88.2444   13.5855 C.2     1  UNL1        0.0444
     14 C          64.6972   89.1859   14.4564 C.2     1  UNL1        0.0306
     15 C          64.6779   90.6588   14.1729 C.2     1  UNL1        0.1412
     16 F          65.4556   91.6005   15.0437 F       1  UNL1       -0.2041
     17 C          63.8809   91.1900   13.0185 C.2     1  UNL1        0.0449
     18 C          63.1032   90.2483   12.1476 C.2     1  UNL1        0.0689
     19 N          62.2185   90.3896   10.9446 N.2     1  UNL1       -0.2522
     20 C          61.6507   88.9354   10.4430 C.2     1  UNL1        0.0693
     21 C          62.2832   88.0168   11.4461 C.2     1  UNL1        0.0185
     22 C          63.1225   88.7755   12.4311 C.3     1  UNL1        0.0916
     23 H          63.6996   84.7393   13.9061 H       1  UNL1        0.1776
@<TRIPOS>BOND
     1     2     1    1
     2     2     3    1
     3     3     4    1
     4     4     5    1
     5     5     6    1
     6     6     7    1
     7     7     8    1
     8     8     9    2
     9     9    10    1
    10    10    11   am
    11    11    12    2
    12    11    13    1
    13    13    14    2
    14    14    15    1
    15    15    16    1
    16    15    17    2
    17    17    18    1
    18    18    19    2
    19    19    20    1
    20    20    21    2
    21    21    22    1
    22     6     2    1
    23    21     8    1
    24    20     2    1
    25    22    13    1
    26    22    18    1
    27    10    23    1
@<TRIPOS>MOLECULE
*****
 23 27 0 0 0
SMALL
GASTEIGER

@<TRIPOS>ATOM
      1 C          60.9061   85.9616    9.5579 C.3     1  UNL1        0.0221
      2 C          60.7550   87.4289    9.2857 C.3     1  UNL1        0.0809
      3 C          60.0336   86.5495    8.3078 C.3     1  UNL1        0.0218
      4 C          59.3479   87.4330    7.3082 C.3     1  UNL1        0.0191
      5 C          59.6455   88.8584    7.6682 C.3     1  UNL1        0.0727
      6 N          60.5152   88.8559    8.8904 N.3     1  UNL1       -0.2653
      7 C          61.1196   89.9686    9.6945 C.3     1  UNL1        0.1202
      8 C          61.9639   89.6543   10.8938 C.2     1  UNL1        0.0903
      9 N          62.4684   90.9045   11.5517 N.2     1  UNL1       -0.1822
     10 N          63.3372   91.0364   12.7672 N.am    1  UNL1       -0.2029
     11 C          63.9163   89.9508   13.6252 C.2     1  UNL1        0.2612
     12 O          64.7527   90.4118   14.7818 O.2     1  UNL1       -0.2687
     13 C          63.7695   88.4651   13.4795 C.2     1  UNL1        0.0444
     14 C          64.5142   87.7327   14.5560 C.2     1  UNL1        0.0306
     15 C          64.4969   86.2332   14.5927 C.2     1  UNL1        0.1412
     16 F          65.2416   85.5007   15.6692 F       1  UNL1       -0.2041
     17 C          63.7347   85.4662   13.5530 C.2     1  UNL1        0.0449
     18 C          62.9900   86.1987   12.4766 C.2     1  UNL1        0.0689
     19 N          62.1436   85.8022   11.3034 N.2     1  UNL1       -0.2522
     20 C          61.5993   87.1147   10.4850 C.2     1  UNL1        0.0693
     21 C          62.2038   88.2275   11.2890 C.2     1  UNL1        0.0185
     22 C          63.0073   87.6981   12.4398 C.3     1  UNL1        0.0916
     23 H          63.5564   91.9573   13.0377 H       1  UNL1        0.1776
@<TRIPOS>BOND
     1     2     1    1
     2     2     3    1
     3     3     4    1
     4     4     5    1
     5     5     6    1
     6     6     7    1
     7     7     8    1
     8     8     9    2
     9     9    10    1
    10    10    11   am
    11    11    12    2
    12    11    13    1
    13    13    14    2
    14    14    15    1
    15    15    16    1
    16    15    17    2
    17    17    18    1
    18    18    19    2
    19    19    20    1
    20    20    21    2
    21    21    22    1
    22     6     2    1
    23    21     8    1
    24    20     2    1
    25    22    13    1
    26    22    18    1
    27    10    23    1
@<TRIPOS>MOLECULE
*****
 23 27 0 0 0
SMALL
GASTEIGER

@<TRIPOS>ATOM
      1 C          62.3486   83.1610   11.1170 C.3     1  UNL1        0.0221
      2 C          62.9564   83.1240   12.4878 C.3     1  UNL1        0.0809
      3 C          62.6410   81.7705   11.9235 C.3     1  UNL1        0.0218
      4 C          63.0429   80.7406   12.9374 C.3     1  UNL1        0.0191
      5 C          63.6066   81.4576   14.1282 C.3     1  UNL1        0.0727
      6 N          63.5532   82.9307   13.8503 N.3     1  UNL1       -0.2653
      7 C          63.9708   84.1210   14.6620 C.3     1  UNL1        0.1202
      8 C          63.7917   85.5046   14.1111 C.2     1  UNL1        0.0903
      9 N          64.2714   86.5460   15.0783 N.2     1  UNL1       -0.1822
     10 N          64.2729   88.0377   14.9220 N.am    1  UNL1       -0.2029
     11 C          63.7951   88.8567   13.7597 C.2     1  UNL1        0.2612
     12 O          63.9328   90.3428   13.9102 O.2     1  UNL1       -0.2687
     13 C          63.1977   88.3862   12.4666 C.2     1  UNL1        0.0444
     14 C          62.8539   89.5387   11.5703 C.2     1  UNL1        0.0306
     15 C          62.2431   89.2854   10.2238 C.2     1  UNL1        0.1412
     16 F          61.8994   90.4378    9.3274 F       1  UNL1       -0.2041
     17 C          61.9761   87.8796    9.7739 C.2     1  UNL1        0.0449
     18 C          62.3198   86.7271   10.6704 C.2     1  UNL1        0.0689
     19 N          62.2090   85.2339   10.5810 N.2     1  UNL1       -0.2522
     20 C          62.7773   84.5076   11.9368 C.2     1  UNL1        0.0693
     21 C          63.1950   85.6979   12.7486 C.2     1  UNL1        0.0185
     22 C          62.9306   86.9804   12.0167 C.3     1  UNL1        0.0916
     23 H          64.6355   88.5466   15.6828 H       1  UNL1        0.1776
@<TRIPOS>BOND
     1     2     1    1
     2     2     3    1
     3     3     4    1
     4     4     5    1
     5     5     6    1
     6     6     7    1
     7     7     8    1
     8     8     9    2
     9     9    10    1
    10    10    11   am
    11    11    12    2
    12    11    13    1
    13    13    14    2
    14    14    15    1
    15    15    16    1
    16    15    17    2
    17    17    18    1
    18    18    19    2
    19    19    20    1
    20    20    21    2
    21    21    22    1
    22     6     2    1
    23    21     8    1
    24    20     2    1
    25    22    13    1
    26    22    18    1
    27    10    23    1
@<TRIPOS>MOLECULE
*****
 23 27 0 0 0
SMALL
GASTEIGER

@<TRIPOS>ATOM
      1 C          60.7146   86.1179    8.8937 C.3     1  UNL1        0.0221
      2 C          60.9667   87.4903    9.4440 C.3     1  UNL1        0.0809
      3 C          60.1341   87.4767    8.1964 C.3     1  UNL1        0.0218
      4 C          59.7867   88.8955    7.8555 C.3     1  UNL1        0.0191
      5 C          60.4046   89.7861    8.8924 C.3     1  UNL1        0.0727
      6 N          61.1339   88.9176    9.8741 N.3     1  UNL1       -0.2653
      7 C          61.9287   89.2420   11.1042 C.3     1  UNL1        0.1202
      8 C          62.5563   88.1391   11.9041 C.2     1  UNL1        0.0903
      9 N          63.3026   88.6776   13.0887 N.2     1  UNL1       -0.1822
     10 N          64.0660   87.9219   14.1356 N.am    1  UNL1       -0.2029
     11 C          64.2716   86.4410   14.2566 C.2     1  UNL1        0.2612
     12 O          65.0928   85.9916   15.4286 O.2     1  UNL1       -0.2687
     13 C          63.7647   85.3500   13.3605 C.2     1  UNL1        0.0444
     14 C          64.2007   83.9982   13.8424 C.2     1  UNL1        0.0306
     15 C          63.7988   82.7668   13.0859 C.2     1  UNL1        0.1412
     16 F          64.2348   81.4149   13.5677 F       1  UNL1       -0.2041
     17 C          62.9610   82.8874   11.8475 C.2     1  UNL1        0.0449
     18 C          62.5251   84.2393   11.3657 C.2     1  UNL1        0.0689
     19 N          61.7122   84.7523   10.2141 N.2     1  UNL1       -0.2522
     20 C          61.5943   86.3875   10.2439 C.2     1  UNL1        0.0693
     21 C          62.3891   86.7120   11.4740 C.2     1  UNL1        0.0185
     22 C          62.9269   85.4707   12.1222 C.3     1  UNL1        0.0916
     23 H          64.4878   88.4704   14.8360 H       1  UNL1        0.1776
@<TRIPOS>BOND
     1     2     1    1
     2     2     3    1
     3     3     4    1
     4     4     5    1
     5     5     6    1
     6     6     7    1
     7     7     8    1
     8     8     9    2
     9     9    10    1
    10    10    11   am
    11    11    12    2
    12    11    13    1
    13    13    14    2
    14    14    15    1
    15    15    16    1
    16    15    17    2
    17    17    18    1
    18    18    19    2
    19    19    20    1
    20    20    21    2
    21    21    22    1
    22     6     2    1
    23    21     8    1
    24    20     2    1
    25    22    13    1
    26    22    18    1
    27    10    23    1
@<TRIPOS>MOLECULE
*****
 23 27 0 0 0
SMALL
GASTEIGER

@<TRIPOS>ATOM
      1 C          64.0544   84.5739   14.7183 C.3     1  UNL1        0.0221
      2 C          63.3509   84.2134   13.4435 C.3     1  UNL1        0.0809
      3 C          63.6714   83.0370   14.3172 C.3     1  UNL1        0.0218
      4 C          63.1737   81.8001   13.6299 C.3     1  UNL1        0.0191
      5 C          62.5457   82.2120   12.3315 C.3     1  UNL1        0.0727
      6 N          62.6553   83.7035   12.2162 N.3     1  UNL1       -0.2653
      7 C          62.2114   84.6633   11.1524 C.3     1  UNL1        0.1202
      8 C          62.4633   86.1330   11.3157 C.2     1  UNL1        0.0903
      9 N          61.9428   86.9117   10.1440 N.2     1  UNL1       -0.1822
     10 N          61.9895   88.3926    9.9102 N.am    1  UNL1       -0.2029
     11 C          62.5682   89.4606   10.7903 C.2     1  UNL1        0.2612
     12 O          62.4573   90.8632   10.2703 O.2     1  UNL1       -0.2687
     13 C          63.2431   89.3114   12.1216 C.2     1  UNL1        0.0444
     14 C          63.6776   90.6392   12.6675 C.2     1  UNL1        0.0306
     15 C          64.3751   90.7130   13.9935 C.2     1  UNL1        0.1412
     16 F          64.8097   92.0408   14.5395 F       1  UNL1       -0.2041
     17 C          64.6380   89.4590   14.7734 C.2     1  UNL1        0.0449
     18 C          64.2034   88.1312   14.2274 C.2     1  UNL1        0.0689
     19 N          64.2830   86.7071   14.6918 N.2     1  UNL1       -0.2522
     20 C          63.6028   85.6831   13.6068 C.2     1  UNL1        0.0693
     21 C          63.1589   86.6428   12.5429 C.2     1  UNL1        0.0185
     22 C          63.5060   88.0574   12.9015 C.3     1  UNL1        0.0916
     23 H          61.5872   88.7049    9.0677 H       1  UNL1        0.1776
@<TRIPOS>BOND
     1     2     1    1
     2     2     3    1
     3     3     4    1
     4     4     5    1
     5     5     6    1
     6     6     7    1
     7     7     8    1
     8     8     9    2
     9     9    10    1
    10    10    11   am
    11    11    12    2
    12    11    13    1
    13    13    14    2
    14    14    15    1
    15    15    16    1
    16    15    17    2
    17    17    18    1
    18    18    19    2
    19    19    20    1
    20    20    21    2
    21    21    22    1
    22     6     2    1
    23    21     8    1
    24    20     2    1
    25    22    13    1
    26    22    18    1
    27    10    23    1
@<TRIPOS>MOLECULE
*****
 23 27 0 0 0
SMALL
GASTEIGER

@<TRIPOS>ATOM
      1 C          62.4022   83.1056   11.4839 C.3     1  UNL1        0.0221
      2 C          63.1575   83.4827   12.7238 C.3     1  UNL1        0.0809
      3 C          63.0158   82.0031   12.5220 C.3     1  UNL1        0.0218
      4 C          63.6983   81.3120   13.6650 C.3     1  UNL1        0.0191
      5 C          64.2618   82.3644   14.5732 C.3     1  UNL1        0.0727
      6 N          63.9276   83.7060   13.9915 N.3     1  UNL1       -0.2653
      7 C          64.2249   85.1022   14.4524 C.3     1  UNL1        0.1202
      8 C          63.7522   86.2749   13.6455 C.2     1  UNL1        0.0903
      9 N          64.1531   87.5738   14.2798 N.2     1  UNL1       -0.1822
     10 N          63.8831   88.9701   13.8030 N.am    1  UNL1       -0.2029
     11 C          63.1453   89.4125   12.5741 C.2     1  UNL1        0.2612
     12 O          63.0441   90.8957   12.3744 O.2     1  UNL1       -0.2687
     13 C          62.4954   88.5678   11.5186 C.2     1  UNL1        0.0444
     14 C          61.8621   89.4129   10.4535 C.2     1  UNL1        0.0306
     15 C          61.1560   88.7623    9.3009 C.2     1  UNL1        0.1412
     16 F          60.5226   89.6074    8.2357 F       1  UNL1       -0.2041
     17 C          61.0834   87.2666    9.2136 C.2     1  UNL1        0.0449
     18 C          61.7168   86.4215   10.2788 C.2     1  UNL1        0.0689
     19 N          61.8525   84.9498   10.5351 N.2     1  UNL1       -0.2522
     20 C          62.6847   84.6555   11.9169 C.2     1  UNL1        0.0693
     21 C          62.9821   86.0517   12.3779 C.2     1  UNL1        0.0185
     22 C          62.4228   87.0721   11.4312 C.3     1  UNL1        0.0916
     23 H          64.2368   89.6916   14.3718 H       1  UNL1        0.1776
@<TRIPOS>BOND
     1     2     1    1
     2     2     3    1
     3     3     4    1
     4     4     5    1
     5     5     6    1
     6     6     7    1
     7     7     8    1
     8     8     9    2
     9     9    10    1
    10    10    11   am
    11    11    12    2
    12    11    13    1
    13    13    14    2
    14    14    15    1
    15    15    16    1
    16    15    17    2
    17    17    18    1
    18    18    19    2
    19    19    20    1
    20    20    21    2
    21    21    22    1
    22     6     2    1
    23    21     8    1
    24    20     2    1
    25    22    13    1
    26    22    18    1
    27    10    23    1
@<TRIPOS>MOLECULE
*****
 23 27 0 0 0
SMALL
GASTEIGER

@<TRIPOS>ATOM
      1 C          62.1708   87.6032   10.1175 C.3     1  UNL1        0.0221
      2 C          62.7038   88.3443   11.3077 C.3     1  UNL1        0.0809
      3 C          62.2346   89.2340   10.1949 C.3     1  UNL1        0.0218
      4 C          62.4459   90.6572   10.6190 C.3     1  UNL1        0.0191
      5 C          63.0456   90.6471   11.9939 C.3     1  UNL1        0.0727
      6 N          63.2050   89.2176   12.4195 N.3     1  UNL1       -0.2653
      7 C          63.7418   88.5983   13.6758 C.3     1  UNL1        0.1202
      8 C          63.7774   87.1057   13.8203 C.2     1  UNL1        0.0903
      9 N          64.3482   86.6969   15.1459 N.2     1  UNL1       -0.1822
     10 N          64.5589   85.3139   15.6870 N.am    1  UNL1       -0.2029
     11 C          64.2507   83.9981   15.0363 C.2     1  UNL1        0.2612
     12 O          64.5811   82.7788   15.8450 O.2     1  UNL1       -0.2687
     13 C          63.6557   83.7402   13.6836 C.2     1  UNL1        0.0444
     14 C          63.5130   82.2707   13.4188 C.2     1  UNL1        0.0306
     15 C          62.9366   81.7956   12.1179 C.2     1  UNL1        0.1412
     16 F          62.7940   80.3261   11.8530 F       1  UNL1       -0.2041
     17 C          62.5030   82.7900   11.0820 C.2     1  UNL1        0.0449
     18 C          62.6456   84.2596   11.3469 C.2     1  UNL1        0.0689
     19 N          62.3380   85.5167   10.5888 N.2     1  UNL1       -0.2522
     20 C          62.7393   86.8517   11.4522 C.2     1  UNL1        0.0693
     21 C          63.2762   86.2325   12.7086 C.2     1  UNL1        0.0185
     22 C          63.2220   84.7346   12.6477 C.3     1  UNL1        0.0916
     23 H          64.9513   85.2631   16.5885 H       1  UNL1        0.1776
@<TRIPOS>BOND
     1     2     1    1
     2     2     3    1
     3     3     4    1
     4     4     5    1
     5     5     6    1
     6     6     7    1
     7     7     8    1
     8     8     9    2
     9     9    10    1
    10    10    11   am
    11    11    12    2
    12    11    13    1
    13    13    14    2
    14    14    15    1
    15    15    16    1
    16    15    17    2
    17    17    18    1
    18    18    19    2
    19    19    20    1
    20    20    21    2
    21    21    22    1
    22     6     2    1
    23    21     8    1
    24    20     2    1
    25    22    13    1
    26    22    18    1
    27    10    23    1
@<TRIPOS>MOLECULE
*****
 23 27 0 0 0
SMALL
GASTEIGER

@<TRIPOS>ATOM
      1 C          63.7179   91.2283   11.7782 C.3     1  UNL1        0.0221
      2 C          64.2582   90.5874   13.0221 C.3     1  UNL1        0.0809
      3 C          64.5614   92.0521   12.9093 C.3     1  UNL1        0.0218
      4 C          65.3460   92.4576   14.1217 C.3     1  UNL1        0.0191
      5 C          65.5276   91.2436   14.9838 C.3     1  UNL1        0.0727
      6 N          64.8553   90.0877   14.3042 N.3     1  UNL1       -0.2653
      7 C          64.7097   88.6448   14.6871 C.3     1  UNL1        0.1202
      8 C          63.9669   87.7015   13.7880 C.2     1  UNL1        0.0903
      9 N          63.9382   86.3128   14.3544 N.2     1  UNL1       -0.1822
     10 N          63.3053   85.0808   13.7786 N.am    1  UNL1       -0.2029
     11 C          62.5447   84.9332   12.4942 C.2     1  UNL1        0.2612
     12 O          62.0318   83.5555   12.1961 O.2     1  UNL1       -0.2687
     13 C          62.2292   85.9811   11.4683 C.2     1  UNL1        0.0444
     14 C          61.4426   85.4103   10.3258 C.2     1  UNL1        0.0306
     15 C          61.0232   86.2939    9.1884 C.2     1  UNL1        0.1412
     16 F          60.2366   85.7231    8.0459 F       1  UNL1       -0.2041
     17 C          61.3904   87.7482    9.1937 C.2     1  UNL1        0.0449
     18 C          62.1770   88.3190   10.3363 C.2     1  UNL1        0.0689
     19 N          62.7162   89.6729   10.6915 N.2     1  UNL1       -0.2522
     20 C          63.5154   89.6441   12.1229 C.2     1  UNL1        0.0693
     21 C          63.3698   88.2011   12.5060 C.2     1  UNL1        0.0185
     22 C          62.5964   87.4355   11.4736 C.3     1  UNL1        0.0916
     23 H          63.4018   84.2606   14.3146 H       1  UNL1        0.1776
@<TRIPOS>BOND
     1     2     1    1
     2     2     3    1
     3     3     4    1
     4     4     5    1
     5     5     6    1
     6     6     7    1
     7     7     8    1
     8     8     9    2
     9     9    10    1
    10    10    11   am
    11    11    12    2
    12    11    13    1
    13    13    14    2
    14    14    15    1
    15    15    16    1
    16    15    17    2
    17    17    18    1
    18    18    19    2
    19    19    20    1
    20    20    21    2
    21    21    22    1
    22     6     2    1
    23    21     8    1
    24    20     2    1
    25    22    13    1
    26    22    18    1
    27    10    23    1
