@<TRIPOS>MOLECULE
*****
 32 35 0 0 0
SMALL
GASTEIGER

@<TRIPOS>ATOM
      1 C          63.3069   85.5722   15.9412 C.ar    1  UNL1        0.0536
      2 C          64.6031   85.3481   15.2203 C.ar    1  UNL1        0.0043
      3 C          64.8352   84.0671   14.4753 C.ar    1  UNL1       -0.0005
      4 C          63.7711   83.0102   14.4512 C.ar    1  UNL1        0.0212
      5 C          62.4749   83.2342   15.1720 C.ar    1  UNL1       -0.0005
      6 C          62.2428   84.5152   15.9170 C.ar    1  UNL1        0.0043
      7 C          64.4886   90.7555   14.9474 C.3     1  UNL1        0.1025
      8 C          64.7208   89.4744   14.2024 C.3     1  UNL1        0.0327
      9 C          64.2495   88.1737   14.7820 C.3     1  UNL1        0.0943
     10 N          63.5460   88.1540   16.1066 N.am    1  UNL1       -0.2761
     11 C          63.0748   86.8533   16.6863 C.2     1  UNL1        0.2490
     12 O          62.3713   86.8335   18.0109 O.2     1  UNL1       -0.2699
     13 C          63.3139   89.4349   16.8517 C.3     1  UNL1        0.0943
     14 C          63.7852   90.7357   16.2721 C.3     1  UNL1        0.0327
     15 C          64.9599   92.0562   14.3678 C.2     1  UNL1        0.3167
     16 O          64.7261   92.3595   12.9175 O.2     1  UNL1       -0.2501
     17 C          66.9247   92.6659   15.9547 C.3     1  UNL1        0.2556
     18 O          65.6650   93.0536   15.2385 O.3     1  UNL1       -0.4444
     19 C          64.0033   81.7291   13.7061 C.3     1  UNL1        0.2320
     20 O          63.4215   81.5422   12.3363 O.3     1  UNL1       -0.4706
     21 C          63.2662   82.7198   11.4202 C.ar    1  UNL1        0.1397
     22 C          64.0314   82.7733   10.1312 C.ar    1  UNL1        0.0385
     23 C          63.8761   83.9509    9.2152 C.ar    1  UNL1        0.0228
     24 C          62.9557   85.0751    9.5883 C.ar    1  UNL1        0.0894
     25 N          62.6015   86.3555    8.8917 N.ar    1  UNL1       -0.2245
     26 C          61.6175   87.0934    9.7503 C.ar    1  UNL1        0.1567
     27 N          60.9964   88.4223    9.4369 N.pl3   1  UNL1       -0.3375
     28 S          61.3635   86.2689   10.9775 S.2     1  UNL1       -0.0519
     29 C          62.1906   85.0216   10.8773 C.ar    1  UNL1        0.0527
     30 C          62.3458   83.8440   11.7933 C.ar    1  UNL1        0.0450
     31 H          61.2275   88.8889    8.6013 H       1  UNL1        0.1442
     32 H          60.3577   88.8280   10.0667 H       1  UNL1        0.1442
@<TRIPOS>BOND
     1    17    18    1
     2    18    15    1
     3    15    16    2
     4    15     7    1
     5     7     8    1
     6     8     9    1
     7     9    10    1
     8    10    11   am
     9    11    12    2
    10    11     1    1
    11     1     2   ar
    12     2     3   ar
    13     3     4   ar
    14     4    19    1
    15    19    20    1
    16    20    21    1
    17    21    22   ar
    18    22    23   ar
    19    23    24   ar
    20    24    25   ar
    21    25    26   ar
    22    26    27    1
    23    26    28   ar
    24    28    29   ar
    25    29    30   ar
    26     4     5   ar
    27     5     6   ar
    28    10    13    1
    29    13    14    1
    30    14     7    1
    31     6     1   ar
    32    30    21   ar
    33    29    24   ar
    34    27    31    1
    35    27    32    1
@<TRIPOS>MOLECULE
*****
 32 35 0 0 0
SMALL
GASTEIGER

@<TRIPOS>ATOM
      1 C          63.3545   88.7071   12.4109 C.ar    1  UNL1        0.0536
      2 C          64.0751   88.4286   13.6966 C.ar    1  UNL1        0.0043
      3 C          64.6732   89.5586   14.4811 C.ar    1  UNL1       -0.0005
      4 C          64.5506   90.9671   13.9798 C.ar    1  UNL1        0.0212
      5 C          63.8301   91.2455   12.6940 C.ar    1  UNL1       -0.0005
      6 C          63.2320   90.1155   11.9096 C.ar    1  UNL1        0.0043
      7 C          63.0975   83.3550   13.1455 C.3     1  UNL1        0.1025
      8 C          63.6956   84.4850   13.9300 C.3     1  UNL1        0.0327
      9 C          63.5819   85.8923   13.4236 C.3     1  UNL1        0.0943
     10 N          62.8701   86.1697   12.1327 N.am    1  UNL1       -0.2761
     11 C          62.7564   87.5771   11.6264 C.2     1  UNL1        0.2490
     12 O          62.0446   87.8545   10.3355 O.2     1  UNL1       -0.2699
     13 C          62.2720   85.0398   11.3482 C.3     1  UNL1        0.0943
     14 C          62.3857   83.6324   11.8546 C.3     1  UNL1        0.0327
     15 C          63.2112   81.9477   13.6519 C.2     1  UNL1        0.3167
     16 O          64.3363   81.0716   13.1862 O.2     1  UNL1       -0.2501
     17 C          60.8982   80.8628   14.1244 C.3     1  UNL1        0.2556
     18 O          62.1999   81.4163   14.6239 O.3     1  UNL1       -0.4444
     19 C          65.1488   92.0971   14.7643 C.3     1  UNL1        0.2320
     20 O          66.4621   92.6883   14.3455 O.3     1  UNL1       -0.4706
     21 C          66.6913   93.0666   12.9121 C.ar    1  UNL1        0.1397
     22 C          67.3334   92.0899   11.9721 C.ar    1  UNL1        0.0385
     23 C          67.5626   92.4682   10.5388 C.ar    1  UNL1        0.0228
     24 C          67.1497   93.8233   10.0456 C.ar    1  UNL1        0.0894
     25 N          67.2472   94.4733    8.6972 N.ar    1  UNL1       -0.2245
     26 C          66.6654   95.8517    8.8039 C.ar    1  UNL1        0.1567
     27 N          66.5593   96.8525    7.6916 N.pl3   1  UNL1       -0.3375
     28 S          66.2083   96.0536   10.2182 S.2     1  UNL1       -0.0519
     29 C          66.5076   94.8000   10.9856 C.ar    1  UNL1        0.0527
     30 C          66.2784   94.4217   12.4189 C.ar    1  UNL1        0.0450
     31 H          66.8895   96.6258    6.7923 H       1  UNL1        0.1442
     32 H          66.1595   97.7361    7.8609 H       1  UNL1        0.1442
@<TRIPOS>BOND
     1    17    18    1
     2    18    15    1
     3    15    16    2
     4    15     7    1
     5     7     8    1
     6     8     9    1
     7     9    10    1
     8    10    11   am
     9    11    12    2
    10    11     1    1
    11     1     2   ar
    12     2     3   ar
    13     3     4   ar
    14     4    19    1
    15    19    20    1
    16    20    21    1
    17    21    22   ar
    18    22    23   ar
    19    23    24   ar
    20    24    25   ar
    21    25    26   ar
    22    26    27    1
    23    26    28   ar
    24    28    29   ar
    25    29    30   ar
    26     4     5   ar
    27     5     6   ar
    28    10    13    1
    29    13    14    1
    30    14     7    1
    31     6     1   ar
    32    30    21   ar
    33    29    24   ar
    34    27    31    1
    35    27    32    1
@<TRIPOS>MOLECULE
*****
 32 35 0 0 0
SMALL
GASTEIGER

@<TRIPOS>ATOM
      1 C          63.6342   88.5867   13.0751 C.ar    1  UNL1        0.0536
      2 C          64.3734   88.5241   14.3787 C.ar    1  UNL1        0.0043
      3 C          64.9417   89.7755   14.9795 C.ar    1  UNL1       -0.0005
      4 C          64.7708   91.0896   14.2766 C.ar    1  UNL1        0.0212
      5 C          64.0316   91.1522   12.9729 C.ar    1  UNL1       -0.0005
      6 C          63.4633   89.9008   12.3722 C.ar    1  UNL1        0.0043
      7 C          60.3228   87.5922    8.9162 C.3     1  UNL1        0.1025
      8 C          60.8911   88.8437    9.5170 C.3     1  UNL1        0.0327
      9 C          61.8055   88.7580   10.7030 C.3     1  UNL1        0.0943
     10 N          62.1515   87.4210   11.2882 N.am    1  UNL1       -0.2761
     11 C          63.0658   87.3353   12.4742 C.2     1  UNL1        0.2490
     12 O          63.4119   85.9982   13.0594 O.2     1  UNL1       -0.2699
     13 C          61.5832   86.1695   10.6875 C.3     1  UNL1        0.0943
     14 C          60.6688   86.2552    9.5014 C.3     1  UNL1        0.0327
     15 C          59.4084   87.6779    7.7302 C.2     1  UNL1        0.3167
     16 O          59.0538   86.4372    6.9654 O.2     1  UNL1       -0.2501
     17 C          59.4183   89.7141    6.1165 C.3     1  UNL1        0.2556
     18 O          58.8487   89.0043    7.3090 O.3     1  UNL1       -0.4444
     19 C          65.3391   92.3410   14.8774 C.3     1  UNL1        0.2320
     20 O          66.6300   92.9024   14.3594 O.3     1  UNL1       -0.4706
     21 C          66.7731   93.2341   12.9035 C.ar    1  UNL1        0.1397
     22 C          67.3667   92.2301   11.9604 C.ar    1  UNL1        0.0385
     23 C          67.5097   92.5618   10.5046 C.ar    1  UNL1        0.0228
     24 C          67.0592   93.8976    9.9919 C.ar    1  UNL1        0.0894
     25 N          67.0738   94.5029    8.6195 N.ar    1  UNL1       -0.2245
     26 C          66.4892   95.8810    8.7145 C.ar    1  UNL1        0.1567
     27 N          66.3117   96.8438    7.5780 N.pl3   1  UNL1       -0.3375
     28 S          66.1134   96.1274   10.1456 S.2     1  UNL1       -0.0519
     29 C          66.4656   94.9016   10.9351 C.ar    1  UNL1        0.0527
     30 C          66.3226   94.5699   12.3909 C.ar    1  UNL1        0.0450
     31 H          66.5908   96.5891    6.6689 H       1  UNL1        0.1442
     32 H          65.9160   97.7304    7.7411 H       1  UNL1        0.1442
@<TRIPOS>BOND
     1    17    18    1
     2    18    15    1
     3    15    16    2
     4    15     7    1
     5     7     8    1
     6     8     9    1
     7     9    10    1
     8    10    11   am
     9    11    12    2
    10    11     1    1
    11     1     2   ar
    12     2     3   ar
    13     3     4   ar
    14     4    19    1
    15    19    20    1
    16    20    21    1
    17    21    22   ar
    18    22    23   ar
    19    23    24   ar
    20    24    25   ar
    21    25    26   ar
    22    26    27    1
    23    26    28   ar
    24    28    29   ar
    25    29    30   ar
    26     4     5   ar
    27     5     6   ar
    28    10    13    1
    29    13    14    1
    30    14     7    1
    31     6     1   ar
    32    30    21   ar
    33    29    24   ar
    34    27    31    1
    35    27    32    1
@<TRIPOS>MOLECULE
*****
 32 35 0 0 0
SMALL
GASTEIGER

@<TRIPOS>ATOM
      1 C          63.5120   87.7633   15.9362 C.ar    1  UNL1        0.0536
      2 C          64.2756   88.0080   14.6685 C.ar    1  UNL1        0.0043
      3 C          64.6530   89.4063   14.2784 C.ar    1  UNL1       -0.0005
      4 C          64.2669   90.5599   15.1559 C.ar    1  UNL1        0.0212
      5 C          63.5033   90.3152   16.4236 C.ar    1  UNL1       -0.0005
      6 C          63.1259   88.9169   16.8137 C.ar    1  UNL1        0.0043
      7 C          63.5527   83.0097   13.3569 C.3     1  UNL1        0.1025
      8 C          63.9302   84.4081   12.9667 C.3     1  UNL1        0.0327
      9 C          63.7908   85.5265   13.9565 C.3     1  UNL1        0.0943
     10 N          63.2739   85.2465   15.3365 N.am    1  UNL1       -0.2761
     11 C          63.1345   86.3649   16.3263 C.2     1  UNL1        0.2490
     12 O          62.6176   86.0850   17.7064 O.2     1  UNL1       -0.2699
     13 C          62.8964   83.8483   15.7267 C.3     1  UNL1        0.0943
     14 C          63.0358   82.7298   14.7369 C.3     1  UNL1        0.0327
     15 C          63.6921   81.8914   12.3670 C.2     1  UNL1        0.3167
     16 O          62.9620   80.5996   12.5872 O.2     1  UNL1       -0.2501
     17 C          64.1331   82.9830   10.0510 C.3     1  UNL1        0.2556
     18 O          64.5615   82.0647   11.1571 O.3     1  UNL1       -0.4444
     19 C          64.6444   91.9582   14.7657 C.3     1  UNL1        0.2320
     20 O          66.0761   92.2937   14.4700 O.3     1  UNL1       -0.4706
     21 C          66.4709   92.7527   13.0975 C.ar    1  UNL1        0.1397
     22 C          67.1967   91.8193   12.1745 C.ar    1  UNL1        0.0385
     23 C          67.5914   92.2782   10.8020 C.ar    1  UNL1        0.0228
     24 C          67.2602   93.6705   10.3527 C.ar    1  UNL1        0.0894
     25 N          67.5195   94.3986    9.0670 N.ar    1  UNL1       -0.2245
     26 C          66.9539   95.7819    9.1955 C.ar    1  UNL1        0.1567
     27 N          66.9906   96.8507    8.1437 N.pl3   1  UNL1       -0.3375
     28 S          66.3451   95.9087   10.5606 S.2     1  UNL1       -0.0519
     29 C          66.5344   94.6039   11.2757 C.ar    1  UNL1        0.0527
     30 C          66.1397   94.1449   12.6481 C.ar    1  UNL1        0.0450
     31 H          67.4152   96.6710    7.2738 H       1  UNL1        0.1442
     32 H          66.5901   97.7320    8.3232 H       1  UNL1        0.1442
@<TRIPOS>BOND
     1    17    18    1
     2    18    15    1
     3    15    16    2
     4    15     7    1
     5     7     8    1
     6     8     9    1
     7     9    10    1
     8    10    11   am
     9    11    12    2
    10    11     1    1
    11     1     2   ar
    12     2     3   ar
    13     3     4   ar
    14     4    19    1
    15    19    20    1
    16    20    21    1
    17    21    22   ar
    18    22    23   ar
    19    23    24   ar
    20    24    25   ar
    21    25    26   ar
    22    26    27    1
    23    26    28   ar
    24    28    29   ar
    25    29    30   ar
    26     4     5   ar
    27     5     6   ar
    28    10    13    1
    29    13    14    1
    30    14     7    1
    31     6     1   ar
    32    30    21   ar
    33    29    24   ar
    34    27    31    1
    35    27    32    1
@<TRIPOS>MOLECULE
*****
 32 35 0 0 0
SMALL
GASTEIGER

@<TRIPOS>ATOM
      1 C          62.5277   90.1551   11.9023 C.ar    1  UNL1        0.0536
      2 C          62.8626   89.7899   10.4866 C.ar    1  UNL1        0.0043
      3 C          61.8351   89.1228    9.6210 C.ar    1  UNL1       -0.0005
      4 C          60.4728   88.8208   10.1713 C.ar    1  UNL1        0.0212
      5 C          60.1379   89.1860   11.5871 C.ar    1  UNL1       -0.0005
      6 C          61.1654   89.8531   12.4526 C.ar    1  UNL1        0.0043
      7 C          66.2729   93.9570   11.0251 C.3     1  UNL1        0.1025
      8 C          65.2454   93.2898   10.1595 C.3     1  UNL1        0.0327
      9 C          64.3396   92.2449   10.7405 C.3     1  UNL1        0.0943
     10 N          64.4611   91.8671   12.1870 N.am    1  UNL1       -0.2761
     11 C          63.5552   90.8222   12.7680 C.2     1  UNL1        0.2490
     12 O          63.6768   90.4445   14.2145 O.2     1  UNL1       -0.2699
     13 C          65.4885   92.5342   13.0526 C.3     1  UNL1        0.0943
     14 C          66.3945   93.5792   12.4717 C.3     1  UNL1        0.0327
     15 C          67.1788   95.0018   10.4442 C.2     1  UNL1        0.3167
     16 O          66.8931   96.4559   10.6773 O.2     1  UNL1       -0.2501
     17 C          68.5707   93.1516    9.2655 C.3     1  UNL1        0.2556
     18 O          68.3704   94.5928    9.6301 O.3     1  UNL1       -0.4444
     19 C          59.4453   88.1537    9.3057 C.3     1  UNL1        0.2320
     20 O          59.8181   86.9512    8.4902 O.3     1  UNL1       -0.4706
     21 C          60.9814   86.0978    8.9009 C.ar    1  UNL1        0.1397
     22 C          61.9448   85.5951    7.8669 C.ar    1  UNL1        0.0385
     23 C          63.1079   84.7418    8.2775 C.ar    1  UNL1        0.0228
     24 C          63.3077   84.3910    9.7222 C.ar    1  UNL1        0.0894
     25 N          64.3539   83.5745   10.4214 N.ar    1  UNL1       -0.2245
     26 C          64.0371   83.5725   11.8876 C.ar    1  UNL1        0.1567
     27 N          64.8240   82.8773   12.9588 N.pl3   1  UNL1       -0.3375
     28 S          62.7951   84.3878   12.0945 S.2     1  UNL1       -0.0519
     29 C          62.3443   84.8937   10.7562 C.ar    1  UNL1        0.0527
     30 C          61.1812   85.7471   10.3455 C.ar    1  UNL1        0.0450
     31 H          65.6298   82.3634   12.7226 H       1  UNL1        0.1442
     32 H          64.5346   82.9349   13.8981 H       1  UNL1        0.1442
@<TRIPOS>BOND
     1    17    18    1
     2    18    15    1
     3    15    16    2
     4    15     7    1
     5     7     8    1
     6     8     9    1
     7     9    10    1
     8    10    11   am
     9    11    12    2
    10    11     1    1
    11     1     2   ar
    12     2     3   ar
    13     3     4   ar
    14     4    19    1
    15    19    20    1
    16    20    21    1
    17    21    22   ar
    18    22    23   ar
    19    23    24   ar
    20    24    25   ar
    21    25    26   ar
    22    26    27    1
    23    26    28   ar
    24    28    29   ar
    25    29    30   ar
    26     4     5   ar
    27     5     6   ar
    28    10    13    1
    29    13    14    1
    30    14     7    1
    31     6     1   ar
    32    30    21   ar
    33    29    24   ar
    34    27    31    1
    35    27    32    1
@<TRIPOS>MOLECULE
*****
 32 35 0 0 0
SMALL
GASTEIGER

@<TRIPOS>ATOM
      1 C          62.3977   89.9142   12.6714 C.ar    1  UNL1        0.0536
      2 C          62.9002   89.3952   13.9860 C.ar    1  UNL1        0.0043
      3 C          64.1938   89.9051   14.5485 C.ar    1  UNL1       -0.0005
      4 C          64.9850   90.9339   13.7965 C.ar    1  UNL1        0.0212
      5 C          64.4826   91.4529   12.4819 C.ar    1  UNL1       -0.0005
      6 C          63.1889   90.9430   11.9194 C.ar    1  UNL1        0.0043
      7 C          61.1354   86.4579    8.7077 C.3     1  UNL1        0.1025
      8 C          62.4291   86.9678    9.2703 C.3     1  UNL1        0.0327
      9 C          62.4186   87.9499   10.4040 C.3     1  UNL1        0.0943
     10 N          61.1145   88.4223   10.9751 N.am    1  UNL1       -0.2761
     11 C          61.1040   89.4044   12.1087 C.2     1  UNL1        0.2490
     12 O          59.7999   89.8767   12.6798 O.2     1  UNL1       -0.2699
     13 C          59.8208   87.9125   10.4125 C.3     1  UNL1        0.0943
     14 C          59.8313   86.9303    9.2788 C.3     1  UNL1        0.0327
     15 C          61.1458   85.4758    7.5740 C.2     1  UNL1        0.3167
     16 O          59.8626   85.1037    6.8922 O.2     1  UNL1       -0.2501
     17 C          62.5808   84.3628    5.7159 C.3     1  UNL1        0.2556
     18 O          62.4395   84.8658    7.1221 O.3     1  UNL1       -0.4444
     19 C          66.2787   91.4437   14.3592 C.3     1  UNL1        0.2320
     20 O          66.7686   92.8130   13.9916 O.3     1  UNL1       -0.4706
     21 C          66.9367   93.1871   12.5487 C.ar    1  UNL1        0.1397
     22 C          67.6585   92.2629   11.6135 C.ar    1  UNL1        0.0385
     23 C          67.8266   92.6371   10.1707 C.ar    1  UNL1        0.0228
     24 C          67.2729   93.9355    9.6632 C.ar    1  UNL1        0.0894
     25 N          67.2843   94.5683    8.3031 N.ar    1  UNL1       -0.2245
     26 C          66.5696   95.8836    8.3980 C.ar    1  UNL1        0.1567
     27 N          66.3470   96.8493    7.2719 N.pl3   1  UNL1       -0.3375
     28 S          66.1165   96.0637    9.8165 S.2     1  UNL1       -0.0519
     29 C          66.5512   94.8597   10.5984 C.ar    1  UNL1        0.0527
     30 C          66.3831   94.4855   12.0412 C.ar    1  UNL1        0.0450
     31 H          66.6842   96.6409    6.3707 H       1  UNL1        0.1442
     32 H          65.8636   97.6916    7.4340 H       1  UNL1        0.1442
@<TRIPOS>BOND
     1    17    18    1
     2    18    15    1
     3    15    16    2
     4    15     7    1
     5     7     8    1
     6     8     9    1
     7     9    10    1
     8    10    11   am
     9    11    12    2
    10    11     1    1
    11     1     2   ar
    12     2     3   ar
    13     3     4   ar
    14     4    19    1
    15    19    20    1
    16    20    21    1
    17    21    22   ar
    18    22    23   ar
    19    23    24   ar
    20    24    25   ar
    21    25    26   ar
    22    26    27    1
    23    26    28   ar
    24    28    29   ar
    25    29    30   ar
    26     4     5   ar
    27     5     6   ar
    28    10    13    1
    29    13    14    1
    30    14     7    1
    31     6     1   ar
    32    30    21   ar
    33    29    24   ar
    34    27    31    1
    35    27    32    1
@<TRIPOS>MOLECULE
*****
 32 35 0 0 0
SMALL
GASTEIGER

@<TRIPOS>ATOM
      1 C          62.4359   86.2448    9.9032 C.ar    1  UNL1        0.0536
      2 C          61.6499   87.0378    8.9016 C.ar    1  UNL1        0.0043
      3 C          61.2478   88.4492    9.2115 C.ar    1  UNL1       -0.0005
      4 C          61.6317   89.0677   10.5230 C.ar    1  UNL1        0.0212
      5 C          62.4177   88.2747   11.5246 C.ar    1  UNL1       -0.0005
      6 C          62.8198   86.8633   11.2148 C.ar    1  UNL1        0.0043
      7 C          63.0554   81.7799   12.8918 C.3     1  UNL1        0.1025
      8 C          62.6532   83.1914   13.2016 C.3     1  UNL1        0.0327
      9 C          62.5808   84.2092   12.1022 C.3     1  UNL1        0.0943
     10 N          62.9105   83.8155   10.6928 N.am    1  UNL1       -0.2761
     11 C          62.8381   84.8333    9.5934 C.2     1  UNL1        0.2490
     12 O          63.1678   84.4396    8.1840 O.2     1  UNL1       -0.2699
     13 C          63.3127   82.4041   10.3829 C.3     1  UNL1        0.0943
     14 C          63.3851   81.3862   11.4824 C.3     1  UNL1        0.0327
     15 C          63.1278   80.7621   13.9912 C.2     1  UNL1        0.3167
     16 O          64.4604   80.2558   14.4580 O.2     1  UNL1       -0.2501
     17 C          60.5331   80.6555   14.0714 C.3     1  UNL1        0.2556
     18 O          61.8676   80.2506   14.6240 O.3     1  UNL1       -0.4444
     19 C          61.2295   90.4792   10.8329 C.3     1  UNL1        0.2320
     20 O          61.8380   91.1926   12.0037 O.3     1  UNL1       -0.4706
     21 C          63.3006   91.5255   12.0016 C.ar    1  UNL1        0.1397
     22 C          63.9602   91.9992   10.7404 C.ar    1  UNL1        0.0385
     23 C          65.4228   92.3320   10.7384 C.ar    1  UNL1        0.0228
     24 C          66.2258   92.1912   11.9975 C.ar    1  UNL1        0.0894
     25 N          67.6737   92.4430   12.2980 N.ar    1  UNL1       -0.2245
     26 C          67.9089   92.1249   13.7448 C.ar    1  UNL1        0.1567
     27 N          69.2170   92.2358   14.4706 N.pl3   1  UNL1       -0.3375
     28 S          66.6064   91.6765   14.3385 S.2     1  UNL1       -0.0519
     29 C          65.5662   91.7175   13.2586 C.ar    1  UNL1        0.0527
     30 C          64.1037   91.3846   13.2607 C.ar    1  UNL1        0.0450
     31 H          70.0212   92.5414   13.9920 H       1  UNL1        0.1442
     32 H          69.2713   92.0029   15.4257 H       1  UNL1        0.1442
@<TRIPOS>BOND
     1    17    18    1
     2    18    15    1
     3    15    16    2
     4    15     7    1
     5     7     8    1
     6     8     9    1
     7     9    10    1
     8    10    11   am
     9    11    12    2
    10    11     1    1
    11     1     2   ar
    12     2     3   ar
    13     3     4   ar
    14     4    19    1
    15    19    20    1
    16    20    21    1
    17    21    22   ar
    18    22    23   ar
    19    23    24   ar
    20    24    25   ar
    21    25    26   ar
    22    26    27    1
    23    26    28   ar
    24    28    29   ar
    25    29    30   ar
    26     4     5   ar
    27     5     6   ar
    28    10    13    1
    29    13    14    1
    30    14     7    1
    31     6     1   ar
    32    30    21   ar
    33    29    24   ar
    34    27    31    1
    35    27    32    1
@<TRIPOS>MOLECULE
*****
 32 35 0 0 0
SMALL
GASTEIGER

@<TRIPOS>ATOM
      1 C          63.4914   87.5393   16.0638 C.ar    1  UNL1        0.0536
      2 C          64.3125   87.9119   14.8652 C.ar    1  UNL1        0.0043
      3 C          64.6565   89.3493   14.6092 C.ar    1  UNL1       -0.0005
      4 C          64.1794   90.4141   15.5518 C.ar    1  UNL1        0.0212
      5 C          63.3582   90.0415   16.7505 C.ar    1  UNL1       -0.0005
      6 C          63.0142   88.6041   17.0065 C.ar    1  UNL1        0.0043
      7 C          63.4892   83.0810   13.0022 C.3     1  UNL1        0.1025
      8 C          63.8332   84.5184   12.7462 C.3     1  UNL1        0.0327
      9 C          63.7193   85.5253   13.8521 C.3     1  UNL1        0.0943
     10 N          63.2613   85.0950   15.2140 N.am    1  UNL1       -0.2761
     11 C          63.1473   86.1019   16.3199 C.2     1  UNL1        0.2490
     12 O          62.6893   85.6715   17.6819 O.2     1  UNL1       -0.2699
     13 C          62.9172   83.6576   15.4701 C.3     1  UNL1        0.0943
     14 C          63.0312   82.6506   14.3642 C.3     1  UNL1        0.0327
     15 C          63.6031   82.0740   11.8964 C.2     1  UNL1        0.3167
     16 O          64.7234   82.1736   10.9038 O.2     1  UNL1       -0.2501
     17 C          62.5810   79.8613   12.7960 C.3     1  UNL1        0.2556
     18 O          62.5968   80.9675   11.7829 O.3     1  UNL1       -0.4444
     19 C          64.5234   91.8515   15.2958 C.3     1  UNL1        0.2320
     20 O          65.9479   92.2484   15.0439 O.3     1  UNL1       -0.4706
     21 C          66.3531   92.7757   13.6993 C.ar    1  UNL1        0.1397
     22 C          66.0357   94.1924   13.3226 C.ar    1  UNL1        0.0385
     23 C          66.4409   94.7197   11.9781 C.ar    1  UNL1        0.0228
     24 C          67.1634   93.8301   11.0103 C.ar    1  UNL1        0.0894
     25 N          67.6846   94.0691    9.6241 N.ar    1  UNL1       -0.2245
     26 C          68.3240   92.7999    9.1442 C.ar    1  UNL1        0.1567
     27 N          68.9751   92.5907    7.8091 N.pl3   1  UNL1       -0.3375
     28 S          68.1981   91.7766   10.2337 S.2     1  UNL1       -0.0519
     29 C          67.4808   92.4133   11.3870 C.ar    1  UNL1        0.0527
     30 C          67.0756   91.8861   12.7315 C.ar    1  UNL1        0.0450
     31 H          69.0085   93.3274    7.1569 H       1  UNL1        0.1442
     32 H          69.3692   91.7167    7.5852 H       1  UNL1        0.1442
@<TRIPOS>BOND
     1    17    18    1
     2    18    15    1
     3    15    16    2
     4    15     7    1
     5     7     8    1
     6     8     9    1
     7     9    10    1
     8    10    11   am
     9    11    12    2
    10    11     1    1
    11     1     2   ar
    12     2     3   ar
    13     3     4   ar
    14     4    19    1
    15    19    20    1
    16    20    21    1
    17    21    22   ar
    18    22    23   ar
    19    23    24   ar
    20    24    25   ar
    21    25    26   ar
    22    26    27    1
    23    26    28   ar
    24    28    29   ar
    25    29    30   ar
    26     4     5   ar
    27     5     6   ar
    28    10    13    1
    29    13    14    1
    30    14     7    1
    31     6     1   ar
    32    30    21   ar
    33    29    24   ar
    34    27    31    1
    35    27    32    1
@<TRIPOS>MOLECULE
*****
 32 35 0 0 0
SMALL
GASTEIGER

@<TRIPOS>ATOM
      1 C          62.3045   88.9590   11.4438 C.ar    1  UNL1        0.0536
      2 C          61.2938   90.0663   11.3952 C.ar    1  UNL1        0.0043
      3 C          60.3211   90.1443   10.2561 C.ar    1  UNL1       -0.0005
      4 C          60.3590   89.1151    9.1656 C.ar    1  UNL1        0.0212
      5 C          61.3697   88.0078    9.2142 C.ar    1  UNL1       -0.0005
      6 C          62.3425   87.9298   10.3533 C.ar    1  UNL1        0.0043
      7 C          65.8549   92.4301   13.5880 C.3     1  UNL1        0.1025
      8 C          64.8820   92.5081   12.4488 C.3     1  UNL1        0.0327
      9 C          64.0229   91.3251   12.1138 C.3     1  UNL1        0.0943
     10 N          64.1365   90.0640   12.9179 N.am    1  UNL1       -0.2761
     11 C          63.2773   88.8809   12.5830 C.2     1  UNL1        0.2490
     12 O          63.3909   87.6198   13.3871 O.2     1  UNL1       -0.2699
     13 C          65.1092   89.9858   14.0570 C.3     1  UNL1        0.0943
     14 C          65.9685   91.1689   14.3921 C.3     1  UNL1        0.0327
     15 C          66.7140   93.6131   13.9229 C.2     1  UNL1        0.3167
     16 O          66.4491   94.9399   13.2752 O.2     1  UNL1       -0.2501
     17 C          67.6021   92.7873   16.2207 C.3     1  UNL1        0.2556
     18 O          67.8381   93.4694   14.9057 O.3     1  UNL1       -0.4444
     19 C          59.3862   89.1931    8.0264 C.3     1  UNL1        0.2320
     20 O          59.8717   89.0501    6.6144 O.3     1  UNL1       -0.4706
     21 C          59.7686   90.2069    5.6650 C.ar    1  UNL1        0.1397
     22 C          58.4770   90.9587    5.5363 C.ar    1  UNL1        0.0385
     23 C          58.3739   92.1154    4.5869 C.ar    1  UNL1        0.0228
     24 C          59.5624   92.5204    3.7663 C.ar    1  UNL1        0.0894
     25 N          59.7592   93.6103    2.7546 N.ar    1  UNL1       -0.2245
     26 C          61.1725   93.5320    2.2581 C.ar    1  UNL1        0.1567
     27 N          61.7992   94.4337    1.2361 N.pl3   1  UNL1       -0.3375
     28 S          61.8491   92.3938    2.9629 S.2     1  UNL1       -0.0519
     29 C          60.8540   91.7686    3.8950 C.ar    1  UNL1        0.0527
     30 C          60.9571   90.6119    4.8444 C.ar    1  UNL1        0.0450
     31 H          61.2707   95.1569    0.8276 H       1  UNL1        0.1442
     32 H          62.7390   94.3023    0.9740 H       1  UNL1        0.1442
@<TRIPOS>BOND
     1    17    18    1
     2    18    15    1
     3    15    16    2
     4    15     7    1
     5     7     8    1
     6     8     9    1
     7     9    10    1
     8    10    11   am
     9    11    12    2
    10    11     1    1
    11     1     2   ar
    12     2     3   ar
    13     3     4   ar
    14     4    19    1
    15    19    20    1
    16    20    21    1
    17    21    22   ar
    18    22    23   ar
    19    23    24   ar
    20    24    25   ar
    21    25    26   ar
    22    26    27    1
    23    26    28   ar
    24    28    29   ar
    25    29    30   ar
    26     4     5   ar
    27     5     6   ar
    28    10    13    1
    29    13    14    1
    30    14     7    1
    31     6     1   ar
    32    30    21   ar
    33    29    24   ar
    34    27    31    1
    35    27    32    1
