@<TRIPOS>MOLECULE
*****
 23 25 0 0 0
SMALL
GASTEIGER

@<TRIPOS>ATOM
      1 C          62.9617   83.8497   13.7883 C.2     1  UNL1        0.3551
      2 N          63.8960   82.6770   13.8331 N.2     1  UNL1        0.0803
      3 N          64.3672   82.4060   12.4351 N.2     1  UNL1       -0.0380
      4 C          63.7241   83.4111   11.5262 C.2     1  UNL1        0.1178
      5 C          63.8172   83.6291   10.0450 C.3     1  UNL1        0.0878
      6 C          63.0417   84.7395    9.4002 C.2     1  UNL1        0.0415
      7 CL         63.1349   84.9575    7.9190 Cl      1  UNL1       -0.0865
      8 C          62.1731   85.6316   10.2364 C.2     1  UNL1        0.0072
      9 C          62.0800   85.4136   11.7177 C.2     1  UNL1        0.0093
     10 C          62.8554   84.3033   12.3625 C.2     1  UNL1        0.1024
     11 C          61.3976   86.7420    9.5916 C.ar    1  UNL1        0.0005
     12 C          61.7519   88.1706    9.8807 C.ar    1  UNL1        0.0000
     13 C          60.9764   89.2809    9.2359 C.ar    1  UNL1        0.0000
     14 C          59.8466   88.9626    8.3019 C.ar    1  UNL1        0.0000
     15 C          59.4923   87.5340    8.0128 C.ar    1  UNL1        0.0000
     16 C          60.2678   86.4237    8.6576 C.ar    1  UNL1        0.0000
     17 C          63.0312   85.2618   15.9679 C.2     1  UNL1        0.3106
     18 O          64.5096   85.4507   15.7983 O.2     1  UNL1       -0.2469
     19 N          62.2573   84.4612   14.9629 N.am    1  UNL1       -0.1678
     20 H          61.2870   84.3372   15.0742 H       1  UNL1        0.3014
     21 C          62.3269   85.8733   17.1426 C.3     1  UNL1        0.1126
     22 C          63.0364   88.3609   16.9004 C.3     1  UNL1        0.0006
     23 C          62.8476   87.1410   17.7526 C.3     1  UNL1        0.0121
@<TRIPOS>BOND
     1    22    23    1
     2    23    21    1
     3    21    17    1
     4    17    18    2
     5    17    19   am
     6    19     1    1
     7     1     2    2
     8     2     3    1
     9     3     4    2
    10     4     5    1
    11     5     6    1
    12     6     7    1
    13     6     8    2
    14     8    11    1
    15    11    12   ar
    16    12    13   ar
    17    13    14   ar
    18    14    15   ar
    19    15    16   ar
    20     8     9    1
    21     9    10    2
    22    10     1    1
    23    10     4    1
    24    16    11   ar
    25    19    20    1
@<TRIPOS>MOLECULE
*****
 23 25 0 0 0
SMALL
GASTEIGER

@<TRIPOS>ATOM
      1 C          62.6947   90.0267   13.4508 C.2     1  UNL1        0.3551
      2 N          62.4452   89.6453   14.8799 N.2     1  UNL1        0.0803
      3 N          63.4981   90.2992   15.7249 N.2     1  UNL1       -0.0380
      4 C          64.3983   91.0847   14.8180 C.2     1  UNL1        0.1178
      5 C          65.6060   91.9316   15.0904 C.3     1  UNL1        0.0878
      6 C          66.3172   92.6101   13.9573 C.2     1  UNL1        0.0415
      7 CL         67.5250   93.4570   14.2298 Cl      1  UNL1       -0.0865
      8 C          65.8208   92.4418   12.5520 C.2     1  UNL1        0.0072
      9 C          64.6130   91.5949   12.2796 C.2     1  UNL1        0.0093
     10 C          63.9018   90.9163   13.4126 C.2     1  UNL1        0.1024
     11 C          66.5321   93.1203   11.4189 C.ar    1  UNL1        0.0005
     12 C          67.5035   92.3501   10.5745 C.ar    1  UNL1        0.0000
     13 C          68.2147   93.0286    9.4415 C.ar    1  UNL1        0.0000
     14 C          67.9545   94.4774    9.1529 C.ar    1  UNL1        0.0000
     15 C          66.9831   95.2477    9.9973 C.ar    1  UNL1        0.0000
     16 C          66.2719   94.5691   11.1303 C.ar    1  UNL1        0.0000
     17 C          62.0842   88.2321   11.6742 C.2     1  UNL1        0.3106
     18 O          63.1028   87.3020   12.2636 O.2     1  UNL1       -0.2469
     19 N          61.8802   89.5944   12.2678 N.am    1  UNL1       -0.1678
     20 H          61.2117   90.2049   11.8809 H       1  UNL1        0.3014
     21 C          61.2697   87.7998   10.4911 C.3     1  UNL1        0.1126
     22 C          62.3167   86.0212    8.9130 C.3     1  UNL1        0.0006
     23 C          61.3507   86.3842   10.0016 C.3     1  UNL1        0.0121
@<TRIPOS>BOND
     1    22    23    1
     2    23    21    1
     3    21    17    1
     4    17    18    2
     5    17    19   am
     6    19     1    1
     7     1     2    2
     8     2     3    1
     9     3     4    2
    10     4     5    1
    11     5     6    1
    12     6     7    1
    13     6     8    2
    14     8    11    1
    15    11    12   ar
    16    12    13   ar
    17    13    14   ar
    18    14    15   ar
    19    15    16   ar
    20     8     9    1
    21     9    10    2
    22    10     1    1
    23    10     4    1
    24    16    11   ar
    25    19    20    1
@<TRIPOS>MOLECULE
*****
 23 25 0 0 0
SMALL
GASTEIGER

@<TRIPOS>ATOM
      1 C          63.7903   85.4216   15.2786 C.2     1  UNL1        0.3551
      2 N          63.1010   84.8895   16.5000 N.2     1  UNL1        0.0803
      3 N          62.7125   86.0566   17.3585 N.2     1  UNL1       -0.0380
      4 C          63.1618   87.3100   16.6677 C.2     1  UNL1        0.1178
      5 C          63.0504   88.7580   17.0431 C.3     1  UNL1        0.0878
      6 C          63.6052   89.8135   16.1330 C.2     1  UNL1        0.0415
      7 CL         63.4938   91.2615   16.5085 Cl      1  UNL1       -0.0865
      8 C          64.2712   89.4211   14.8477 C.2     1  UNL1        0.0072
      9 C          64.3826   87.9730   14.4722 C.2     1  UNL1        0.0093
     10 C          63.8279   86.9175   15.3823 C.2     1  UNL1        0.1024
     11 C          64.8259   90.4766   13.9376 C.ar    1  UNL1        0.0005
     12 C          64.0767   90.8678   12.6984 C.ar    1  UNL1        0.0000
     13 C          64.6315   91.9233   11.7884 C.ar    1  UNL1        0.0000
     14 C          65.9354   92.5876   12.1176 C.ar    1  UNL1        0.0000
     15 C          66.6846   92.1965   13.3568 C.ar    1  UNL1        0.0000
     16 C          66.1299   91.1410   14.2668 C.ar    1  UNL1        0.0000
     17 C          63.5689   84.4589   12.8757 C.2     1  UNL1        0.3106
     18 O          62.2386   85.1360   12.7270 O.2     1  UNL1       -0.2469
     19 N          64.3446   84.6017   14.1515 N.am    1  UNL1       -0.1678
     20 H          65.2177   84.1573   14.2491 H       1  UNL1        0.3014
     21 C          64.1232   83.6389   11.7486 C.3     1  UNL1        0.1126
     22 C          62.7659   81.4916   12.2931 C.3     1  UNL1        0.0006
     23 C          63.3983   82.4088   11.2887 C.3     1  UNL1        0.0121
@<TRIPOS>BOND
     1    22    23    1
     2    23    21    1
     3    21    17    1
     4    17    18    2
     5    17    19   am
     6    19     1    1
     7     1     2    2
     8     2     3    1
     9     3     4    2
    10     4     5    1
    11     5     6    1
    12     6     7    1
    13     6     8    2
    14     8    11    1
    15    11    12   ar
    16    12    13   ar
    17    13    14   ar
    18    14    15   ar
    19    15    16   ar
    20     8     9    1
    21     9    10    2
    22    10     1    1
    23    10     4    1
    24    16    11   ar
    25    19    20    1
@<TRIPOS>MOLECULE
*****
 23 25 0 0 0
SMALL
GASTEIGER

@<TRIPOS>ATOM
      1 C          62.6881   89.6973   11.3170 C.2     1  UNL1        0.3551
      2 N          62.3504   88.9681   12.5836 N.2     1  UNL1        0.0803
      3 N          63.1495   89.5781   13.6968 N.2     1  UNL1       -0.0380
      4 C          63.9812   90.6843   13.1183 C.2     1  UNL1        0.1178
      5 C          64.9613   91.6340   13.7407 C.3     1  UNL1        0.0878
      6 C          65.6562   92.6573   12.8923 C.2     1  UNL1        0.0415
      7 CL         66.6364   93.6070   13.5148 Cl      1  UNL1       -0.0865
      8 C          65.3711   92.7310   11.4216 C.2     1  UNL1        0.0072
      9 C          64.3909   91.7813   10.7991 C.2     1  UNL1        0.0093
     10 C          63.6960   90.7579   11.6475 C.2     1  UNL1        0.1024
     11 C          66.0661   93.7544   10.5732 C.ar    1  UNL1        0.0005
     12 C          67.2876   93.3748    9.7898 C.ar    1  UNL1        0.0000
     13 C          67.9825   94.3982    8.9414 C.ar    1  UNL1        0.0000
     14 C          67.4559   95.8012    8.8764 C.ar    1  UNL1        0.0000
     15 C          66.2344   96.1808    9.6598 C.ar    1  UNL1        0.0000
     16 C          65.5395   95.1575   10.5082 C.ar    1  UNL1        0.0000
     17 C          60.6384   89.5107    9.7315 C.2     1  UNL1        0.3106
     18 O          59.7288   89.8879   10.8630 O.2     1  UNL1       -0.2469
     19 N          62.1180   89.4154    9.9585 N.am    1  UNL1       -0.1678
     20 H          62.7150   89.1677    9.2158 H       1  UNL1        0.3014
     21 C          60.0684   89.2287    8.3730 C.3     1  UNL1        0.1126
     22 C          60.2841   86.6417    8.4783 C.3     1  UNL1        0.0006
     23 C          59.5283   87.8660    8.0543 C.3     1  UNL1        0.0121
@<TRIPOS>BOND
     1    22    23    1
     2    23    21    1
     3    21    17    1
     4    17    18    2
     5    17    19   am
     6    19     1    1
     7     1     2    2
     8     2     3    1
     9     3     4    2
    10     4     5    1
    11     5     6    1
    12     6     7    1
    13     6     8    2
    14     8    11    1
    15    11    12   ar
    16    12    13   ar
    17    13    14   ar
    18    14    15   ar
    19    15    16   ar
    20     8     9    1
    21     9    10    2
    22    10     1    1
    23    10     4    1
    24    16    11   ar
    25    19    20    1
@<TRIPOS>MOLECULE
*****
 23 25 0 0 0
SMALL
GASTEIGER

@<TRIPOS>ATOM
      1 C          62.6120   88.7634   11.2000 C.2     1  UNL1        0.3551
      2 N          63.1045   90.0191   11.8563 N.2     1  UNL1        0.0803
      3 N          63.7780   89.6372   13.1410 N.2     1  UNL1       -0.0380
      4 C          63.7018   88.1455   13.2787 C.2     1  UNL1        0.1178
      5 C          64.1955   87.2091   14.3415 C.3     1  UNL1        0.0878
      6 C          63.9685   85.7327   14.2046 C.2     1  UNL1        0.0415
      7 CL         64.4622   84.7963   15.2674 Cl      1  UNL1       -0.0865
      8 C          63.2480   85.1927   13.0050 C.2     1  UNL1        0.0072
      9 C          62.7542   86.1291   11.9422 C.2     1  UNL1        0.0093
     10 C          62.9812   87.6055   12.0791 C.2     1  UNL1        0.1024
     11 C          63.0210   83.7162   12.8681 C.ar    1  UNL1        0.0005
     12 C          62.4161   82.9421   14.0016 C.ar    1  UNL1        0.0000
     13 C          62.1892   81.4657   13.8647 C.ar    1  UNL1        0.0000
     14 C          62.5672   80.7634   12.5943 C.ar    1  UNL1        0.0000
     15 C          63.1721   81.5375   11.4608 C.ar    1  UNL1        0.0000
     16 C          63.3990   83.0139   11.5977 C.ar    1  UNL1        0.0000
     17 C          60.4028   88.4154    9.8778 C.2     1  UNL1        0.3106
     18 O          59.6593   88.2336   11.1679 O.2     1  UNL1       -0.2469
     19 N          61.8791   88.6803    9.8939 N.am    1  UNL1       -0.1678
     20 H          62.3670   88.7996    9.0471 H       1  UNL1        0.3014
     21 C          59.6699   88.3323    8.5717 C.3     1  UNL1        0.1126
     22 C          60.2509   85.9563    7.6959 C.3     1  UNL1        0.0006
     23 C          59.2302   86.9996    8.0419 C.3     1  UNL1        0.0121
@<TRIPOS>BOND
     1    22    23    1
     2    23    21    1
     3    21    17    1
     4    17    18    2
     5    17    19   am
     6    19     1    1
     7     1     2    2
     8     2     3    1
     9     3     4    2
    10     4     5    1
    11     5     6    1
    12     6     7    1
    13     6     8    2
    14     8    11    1
    15    11    12   ar
    16    12    13   ar
    17    13    14   ar
    18    14    15   ar
    19    15    16   ar
    20     8     9    1
    21     9    10    2
    22    10     1    1
    23    10     4    1
    24    16    11   ar
    25    19    20    1
@<TRIPOS>MOLECULE
*****
 23 25 0 0 0
SMALL
GASTEIGER

@<TRIPOS>ATOM
      1 C          64.0741   83.9039   14.0093 C.2     1  UNL1        0.3551
      2 N          63.6630   82.9486   15.0902 N.2     1  UNL1        0.0803
      3 N          63.2740   83.7521   16.2957 N.2     1  UNL1       -0.0380
      4 C          63.4448   85.2040   15.9598 C.2     1  UNL1        0.1178
      5 C          63.2139   86.4528   16.7580 C.3     1  UNL1        0.0878
      6 C          63.4775   87.7954   16.1432 C.2     1  UNL1        0.0415
      7 CL         63.2466   89.0442   16.9415 Cl      1  UNL1       -0.0865
      8 C          63.9720   87.8892   14.7302 C.2     1  UNL1        0.0072
      9 C          64.2028   86.6404   13.9319 C.2     1  UNL1        0.0093
     10 C          63.9393   85.2978   14.5467 C.2     1  UNL1        0.1024
     11 C          64.2356   89.2318   14.1154 C.ar    1  UNL1        0.0005
     12 C          65.2724   90.1383   14.7097 C.ar    1  UNL1        0.0000
     13 C          65.5360   91.4809   14.0948 C.ar    1  UNL1        0.0000
     14 C          64.7627   91.9170   12.8858 C.ar    1  UNL1        0.0000
     15 C          63.7258   91.0105   12.2915 C.ar    1  UNL1        0.0000
     16 C          63.4623   89.6679   12.9063 C.ar    1  UNL1        0.0000
     17 C          63.6438   83.7615   11.4511 C.2     1  UNL1        0.3106
     18 O          62.2846   84.3654   11.6461 O.2     1  UNL1       -0.2469
     19 N          64.5385   83.5308   12.6327 N.am    1  UNL1       -0.1678
     20 H          65.4306   83.1344   12.5047 H       1  UNL1        0.3014
     21 C          64.1082   83.3884   10.0745 C.3     1  UNL1        0.1126
     22 C          63.1594   85.3735    8.6927 C.3     1  UNL1        0.0006
     23 C          63.3734   83.8996    8.8708 C.3     1  UNL1        0.0121
@<TRIPOS>BOND
     1    22    23    1
     2    23    21    1
     3    21    17    1
     4    17    18    2
     5    17    19   am
     6    19     1    1
     7     1     2    2
     8     2     3    1
     9     3     4    2
    10     4     5    1
    11     5     6    1
    12     6     7    1
    13     6     8    2
    14     8    11    1
    15    11    12   ar
    16    12    13   ar
    17    13    14   ar
    18    14    15   ar
    19    15    16   ar
    20     8     9    1
    21     9    10    2
    22    10     1    1
    23    10     4    1
    24    16    11   ar
    25    19    20    1
@<TRIPOS>MOLECULE
*****
 23 25 0 0 0
SMALL
GASTEIGER

@<TRIPOS>ATOM
      1 C          66.4491   93.5275   12.4340 C.2     1  UNL1        0.3551
      2 N          67.1973   93.9379   13.6676 N.2     1  UNL1        0.0803
      3 N          66.7007   93.1027   14.8104 N.2     1  UNL1       -0.0380
      4 C          65.6456   92.1761   14.2830 C.2     1  UNL1        0.1178
      5 C          64.8063   91.1272   14.9503 C.3     1  UNL1        0.0878
      6 C          63.8115   90.3408   14.1490 C.2     1  UNL1        0.0415
      7 CL         62.9722   89.2919   14.8165 Cl      1  UNL1       -0.0865
      8 C          63.6561   90.6034   12.6805 C.2     1  UNL1        0.0072
      9 C          64.4954   91.6523   12.0131 C.2     1  UNL1        0.0093
     10 C          65.4901   92.4387   12.8144 C.2     1  UNL1        0.1024
     11 C          62.6613   89.8169   11.8791 C.ar    1  UNL1        0.0005
     12 C          62.8544   88.3425   11.6823 C.ar    1  UNL1        0.0000
     13 C          61.8597   87.5562   10.8810 C.ar    1  UNL1        0.0000
     14 C          60.6717   88.2443   10.2766 C.ar    1  UNL1        0.0000
     15 C          60.4786   89.7187   10.4734 C.ar    1  UNL1        0.0000
     16 C          61.4733   90.5050   11.2747 C.ar    1  UNL1        0.0000
     17 C          67.6019   93.4798   10.1062 C.2     1  UNL1        0.3106
     18 O          68.3960   92.2777   10.5241 O.2     1  UNL1       -0.2469
     19 N          66.6285   94.1046   11.0612 N.am    1  UNL1       -0.1678
     20 H          66.1073   94.8936   10.7869 H       1  UNL1        0.3014
     21 C          67.7812   94.0569    8.7333 C.3     1  UNL1        0.1126
     22 C          67.4304   96.6263    8.5740 C.3     1  UNL1        0.0006
     23 C          66.9542   95.2307    8.2992 C.3     1  UNL1        0.0121
@<TRIPOS>BOND
     1    22    23    1
     2    23    21    1
     3    21    17    1
     4    17    18    2
     5    17    19   am
     6    19     1    1
     7     1     2    2
     8     2     3    1
     9     3     4    2
    10     4     5    1
    11     5     6    1
    12     6     7    1
    13     6     8    2
    14     8    11    1
    15    11    12   ar
    16    12    13   ar
    17    13    14   ar
    18    14    15   ar
    19    15    16   ar
    20     8     9    1
    21     9    10    2
    22    10     1    1
    23    10     4    1
    24    16    11   ar
    25    19    20    1
@<TRIPOS>MOLECULE
*****
 23 25 0 0 0
SMALL
GASTEIGER

@<TRIPOS>ATOM
      1 C          63.4679   83.4781   12.5378 C.2     1  UNL1        0.3551
      2 N          63.1396   82.0934   13.0118 N.2     1  UNL1        0.0803
      3 N          62.8798   82.1580   14.4877 N.2     1  UNL1       -0.0380
      4 C          63.0475   83.5828   14.9259 C.2     1  UNL1        0.1178
      5 C          62.9162   84.2426   16.2665 C.3     1  UNL1        0.0878
      6 C          63.1484   85.7183   16.4020 C.2     1  UNL1        0.0415
      7 CL         63.0171   86.3782   17.7428 Cl      1  UNL1       -0.0865
      8 C          63.5119   86.5341   15.1970 C.2     1  UNL1        0.0072
      9 C          63.6432   85.8743   13.8563 C.2     1  UNL1        0.0093
     10 C          63.4110   84.3986   13.7208 C.2     1  UNL1        0.1024
     11 C          63.7441   88.0099   15.3325 C.ar    1  UNL1        0.0005
     12 C          64.5251   88.7456   14.2843 C.ar    1  UNL1        0.0000
     13 C          64.7573   90.2213   14.4198 C.ar    1  UNL1        0.0000
     14 C          64.2085   90.9613   15.6036 C.ar    1  UNL1        0.0000
     15 C          63.4275   90.2256   16.6518 C.ar    1  UNL1        0.0000
     16 C          63.1953   88.7499   16.5163 C.ar    1  UNL1        0.0000
     17 C          62.8677   84.7720   10.3663 C.2     1  UNL1        0.3106
     18 O          61.6120   85.2761   11.0138 O.2     1  UNL1       -0.2469
     19 N          63.7956   83.8730   11.1283 N.am    1  UNL1       -0.1678
     20 H          64.6197   83.5421   10.7034 H       1  UNL1        0.3014
     21 C          63.1954   85.1669    8.9568 C.3     1  UNL1        0.1126
     22 C          62.2837   84.7199    6.5653 C.3     1  UNL1        0.0006
     23 C          62.1003   85.2929    7.9394 C.3     1  UNL1        0.0121
@<TRIPOS>BOND
     1    22    23    1
     2    23    21    1
     3    21    17    1
     4    17    18    2
     5    17    19   am
     6    19     1    1
     7     1     2    2
     8     2     3    1
     9     3     4    2
    10     4     5    1
    11     5     6    1
    12     6     7    1
    13     6     8    2
    14     8    11    1
    15    11    12   ar
    16    12    13   ar
    17    13    14   ar
    18    14    15   ar
    19    15    16   ar
    20     8     9    1
    21     9    10    2
    22    10     1    1
    23    10     4    1
    24    16    11   ar
    25    19    20    1
