@<TRIPOS>MOLECULE
*****
 40 44 0 0 0
SMALL
GASTEIGER

@<TRIPOS>ATOM
      1 C          64.2024   89.0677   14.3835 C.3     1  UNL1        0.0177
      2 C          63.6344   87.9777   13.5236 C.3     1  UNL1        0.0627
      3 C          63.9523   86.5429   13.8242 C.3     1  UNL1        0.0436
      4 C          63.3844   85.4529   12.9644 C.2     1  UNL1       -0.0044
      5 C          62.4986   85.7977   11.8040 C.2     1  UNL1        0.0735
      6 N          62.0876   84.5178   11.1383 N.2     1  UNL1       -0.2523
      7 C          62.7194   83.3821   11.8873 C.2     1  UNL1        0.0629
      8 C          62.6684   81.8964   11.6874 C.3     1  UNL1        0.0741
      9 C          63.4189   80.9885   12.6161 C.2     1  UNL1        0.0098
     10 C          64.2204   81.5664   13.7447 C.2     1  UNL1        0.1363
     11 F          64.9710   80.6585   14.6734 F       1  UNL1       -0.2045
     12 C          64.2714   83.0521   13.9446 C.2     1  UNL1        0.0302
     13 C          63.5209   83.9600   13.0159 C.2     1  UNL1        0.0134
     14 C          62.1807   87.2325   11.5035 C.3     1  UNL1        0.1250
     15 N          62.7486   88.3225   12.3633 N.3     1  UNL1       -0.2618
     16 C          61.2949   87.5773   10.3431 C.ar    1  UNL1        0.0529
     17 C          60.0237   88.3402   10.5707 C.ar    1  UNL1        0.1411
     18 F          59.6382   88.7583   11.9587 F       1  UNL1       -0.2043
     19 C          59.1379   88.6849    9.4102 C.ar    1  UNL1        0.0438
     20 C          59.5234   88.2668    8.0223 C.ar    1  UNL1        0.0492
     21 C          60.7946   87.5038    7.7946 C.ar    1  UNL1        0.0438
     22 C          61.6804   87.1591    8.9550 C.ar    1  UNL1        0.1411
     23 F          62.9516   86.3961    8.7275 F       1  UNL1       -0.2043
     24 N          58.6376   88.6116    6.8619 N.pl3   1  UNL1       -0.3316
     25 H          57.8821   88.0252    6.6281 H       1  UNL1        0.1468
     26 C          58.9028   89.8498    6.0578 C.3     1  UNL1        0.1014
     27 C          58.0469   90.9001    5.4141 C.3     1  UNL1        0.0933
     28 N          59.2779   91.6008    4.9206 N.3     1  UNL1       -0.2697
     29 C          60.1338   90.5505    5.5643 C.3     1  UNL1        0.0933
     30 C          59.5431   92.8390    4.1165 C.3     1  UNL1        0.0751
     31 C          60.0638   92.7255    2.7144 C.3     1  UNL1        0.0554
     32 C          61.5421   92.7305    2.4607 C.3     1  UNL1        0.1947
     33 F          62.4521   91.8957    3.3122 F       1  UNL1       -0.2343
     34 C          62.4307   89.7573   12.0627 C.3     1  UNL1        0.1425
     35 C          63.5109   90.6798   11.5811 C.3     1  UNL1        0.3049
     36 F          63.5168   91.3686   12.9135 F       1  UNL1       -0.2001
     37 F          63.5051   89.9910   10.2486 F       1  UNL1       -0.2001
     38 C          64.5912   91.6024   11.0994 C.3     1  UNL1        0.2057
     39 O          64.2822   92.6434   10.0645 O.3     1  UNL1       -0.3771
     40 H          64.0542   92.2095    9.2275 H       1  UNL1        0.2106
@<TRIPOS>BOND
     1     2     1    1
     2     2     3    1
     3     3     4    1
     4     4     5    2
     5     5     6    1
     6     6     7    2
     7     7     8    1
     8     8     9    1
     9     9    10    2
    10    10    11    1
    11    10    12    1
    12    12    13    2
    13     5    14    1
    14    14    16    1
    15    16    17   ar
    16    17    18    1
    17    17    19   ar
    18    19    20   ar
    19    20    24    1
    20    24    26    1
    21    26    27    1
    22    27    28    1
    23    28    30    1
    24    30    31    1
    25    31    32    1
    26    32    33    1
    27    28    29    1
    28    20    21   ar
    29    21    22   ar
    30    22    23    1
    31    14    15    1
    32    15    34    1
    33    34    35    1
    34    35    36    1
    35    35    37    1
    36    35    38    1
    37    38    39    1
    38    15     2    1
    39    13     4    1
    40    22    16   ar
    41    13     7    1
    42    29    26    1
    43    24    25    1
    44    39    40    1
@<TRIPOS>MOLECULE
*****
 40 44 0 0 0
SMALL
GASTEIGER

@<TRIPOS>ATOM
      1 C          63.8310   84.7632   14.4043 C.3     1  UNL1        0.0177
      2 C          63.6701   86.1006   13.7442 C.3     1  UNL1        0.0627
      3 C          64.4176   87.2906   14.2688 C.3     1  UNL1        0.0436
      4 C          64.2567   88.6279   13.6088 C.2     1  UNL1       -0.0044
      5 C          63.3485   88.7752   12.4242 C.2     1  UNL1        0.0735
      6 N          63.3899   90.2085   11.9838 N.2     1  UNL1       -0.2523
      7 C          64.3238   90.9470   12.8961 C.2     1  UNL1        0.0629
      8 C          64.7555   92.3827   12.9422 C.3     1  UNL1        0.0741
      9 C          65.7230   92.8416   13.9926 C.2     1  UNL1        0.0098
     10 C          66.2588   91.8648   14.9969 C.2     1  UNL1        0.1363
     11 F          67.2263   92.3237   16.0473 F       1  UNL1       -0.2045
     12 C          65.8270   90.4290   14.9509 C.2     1  UNL1        0.0302
     13 C          64.8595   89.9701   13.9005 C.2     1  UNL1        0.0134
     14 C          62.6010   87.5852   11.8996 C.3     1  UNL1        0.1250
     15 N          62.7618   86.2478   12.5596 N.3     1  UNL1       -0.2618
     16 C          61.6927   87.7325   10.7150 C.ar    1  UNL1        0.0529
     17 C          60.4472   88.5611   10.8234 C.ar    1  UNL1        0.1411
     18 F          60.1098   89.2425   12.1164 F       1  UNL1       -0.2043
     19 C          59.5389   88.7084    9.6387 C.ar    1  UNL1        0.0438
     20 C          59.8762   88.0269    8.3457 C.ar    1  UNL1        0.0492
     21 C          61.1219   87.1983    8.2373 C.ar    1  UNL1        0.0438
     22 C          62.0301   87.0510    9.4219 C.ar    1  UNL1        0.1411
     23 F          63.2757   86.2224    9.3136 F       1  UNL1       -0.2043
     24 N          58.9680   88.1742    7.1610 N.pl3   1  UNL1       -0.3316
     25 H          58.3572   87.4423    6.9150 H       1  UNL1        0.1468
     26 C          58.9902   89.4367    6.3513 C.3     1  UNL1        0.1014
     27 C          57.9623   90.4442    5.9290 C.3     1  UNL1        0.0933
     28 N          59.0217   91.2220    5.2060 N.3     1  UNL1       -0.2697
     29 C          60.0496   90.2145    5.6283 C.3     1  UNL1        0.0933
     30 C          59.0439   92.4845    4.3962 C.3     1  UNL1        0.0751
     31 C          60.1044   92.6893    3.3554 C.3     1  UNL1        0.0554
     32 C          59.7178   93.0490    1.9515 C.3     1  UNL1        0.1947
     33 F          60.3428   92.3290    0.7935 F       1  UNL1       -0.2343
     34 C          62.0144   85.0578   12.0350 C.3     1  UNL1        0.1425
     35 C          62.7481   83.7851   11.7322 C.3     1  UNL1        0.3049
     36 F          61.9346   83.0692   12.7693 F       1  UNL1       -0.2001
     37 F          63.5617   84.5009   10.6950 F       1  UNL1       -0.2001
     38 C          63.4819   82.5124   11.4293 C.3     1  UNL1        0.2057
     39 O          64.9802   82.5093   11.3573 O.3     1  UNL1       -0.3771
     40 H          65.2688   83.0465   10.6030 H       1  UNL1        0.2106
@<TRIPOS>BOND
     1     2     1    1
     2     2     3    1
     3     3     4    1
     4     4     5    2
     5     5     6    1
     6     6     7    2
     7     7     8    1
     8     8     9    1
     9     9    10    2
    10    10    11    1
    11    10    12    1
    12    12    13    2
    13     5    14    1
    14    14    16    1
    15    16    17   ar
    16    17    18    1
    17    17    19   ar
    18    19    20   ar
    19    20    24    1
    20    24    26    1
    21    26    27    1
    22    27    28    1
    23    28    30    1
    24    30    31    1
    25    31    32    1
    26    32    33    1
    27    28    29    1
    28    20    21   ar
    29    21    22   ar
    30    22    23    1
    31    14    15    1
    32    15    34    1
    33    34    35    1
    34    35    36    1
    35    35    37    1
    36    35    38    1
    37    38    39    1
    38    15     2    1
    39    13     4    1
    40    22    16   ar
    41    13     7    1
    42    29    26    1
    43    24    25    1
    44    39    40    1
@<TRIPOS>MOLECULE
*****
 40 44 0 0 0
SMALL
GASTEIGER

@<TRIPOS>ATOM
      1 C          59.6944   87.1783    9.6345 C.3     1  UNL1        0.0177
      2 C          60.8467   87.1478   10.5945 C.3     1  UNL1        0.0627
      3 C          61.2579   85.8535   11.2315 C.3     1  UNL1        0.0436
      4 C          62.4102   85.8229   12.1914 C.2     1  UNL1       -0.0044
      5 C          63.1511   87.0865   12.5143 C.2     1  UNL1        0.0735
      6 N          64.2385   86.7495   13.4909 N.2     1  UNL1       -0.2523
      7 C          64.1697   85.2776   13.7717 C.2     1  UNL1        0.0629
      8 C          64.9900   84.3848   14.6548 C.3     1  UNL1        0.0741
      9 C          64.6802   82.9194   14.7349 C.2     1  UNL1        0.0098
     10 C          63.5502   82.3467   13.9317 C.2     1  UNL1        0.1363
     11 F          63.2405   80.8811   14.0118 F       1  UNL1       -0.2045
     12 C          62.7299   83.2394   13.0485 C.2     1  UNL1        0.0302
     13 C          63.0397   84.7049   12.9685 C.2     1  UNL1        0.0134
     14 C          62.7398   88.3808   11.8772 C.3     1  UNL1        0.1250
     15 N          61.5876   88.4114   10.9173 N.3     1  UNL1       -0.2618
     16 C          63.4807   89.6444   12.2001 C.ar    1  UNL1        0.0529
     17 C          63.8600   90.5929   11.1018 C.ar    1  UNL1        0.1411
     18 F          63.4984   90.2778    9.6806 F       1  UNL1       -0.2043
     19 C          64.6010   91.8566   11.4248 C.ar    1  UNL1        0.0438
     20 C          64.9626   92.1716   12.8460 C.ar    1  UNL1        0.0492
     21 C          64.5833   91.2230   13.9444 C.ar    1  UNL1        0.0438
     22 C          63.8424   89.9595   13.6214 C.ar    1  UNL1        0.1411
     23 F          63.4631   89.0108   14.7197 F       1  UNL1       -0.2043
     24 N          65.7036   93.4352   13.1689 N.pl3   1  UNL1       -0.3316
     25 H          65.8722   93.6809   14.1072 H       1  UNL1        0.1468
     26 C          66.1875   94.3246   12.0621 C.3     1  UNL1        0.1014
     27 C          66.9018   94.1061   10.7613 C.3     1  UNL1        0.0933
     28 N          66.8719   95.5823   10.4970 N.3     1  UNL1       -0.2697
     29 C          66.1577   95.8008   11.7978 C.3     1  UNL1        0.0933
     30 C          67.3559   96.4717    9.3902 C.3     1  UNL1        0.0751
     31 C          66.7841   96.3310    8.0107 C.3     1  UNL1        0.0554
     32 C          65.4113   96.8556    7.7108 C.3     1  UNL1        0.1947
     33 F          64.3583   96.8556    8.7791 F       1  UNL1       -0.2343
     34 C          61.1763   89.7056   10.2803 C.3     1  UNL1        0.1425
     35 C          59.9166   90.3910   10.7200 C.3     1  UNL1        0.3049
     36 F          60.4023   90.3732   12.1391 F       1  UNL1       -0.2001
     37 F          59.4310   90.4088    9.3009 F       1  UNL1       -0.2001
     38 C          58.6569   91.0764   11.1597 C.3     1  UNL1        0.2057
     39 O          58.7299   92.3912   11.8782 O.3     1  UNL1       -0.3771
     40 H          59.1557   92.2652   12.7406 H       1  UNL1        0.2106
@<TRIPOS>BOND
     1     2     1    1
     2     2     3    1
     3     3     4    1
     4     4     5    2
     5     5     6    1
     6     6     7    2
     7     7     8    1
     8     8     9    1
     9     9    10    2
    10    10    11    1
    11    10    12    1
    12    12    13    2
    13     5    14    1
    14    14    16    1
    15    16    17   ar
    16    17    18    1
    17    17    19   ar
    18    19    20   ar
    19    20    24    1
    20    24    26    1
    21    26    27    1
    22    27    28    1
    23    28    30    1
    24    30    31    1
    25    31    32    1
    26    32    33    1
    27    28    29    1
    28    20    21   ar
    29    21    22   ar
    30    22    23    1
    31    14    15    1
    32    15    34    1
    33    34    35    1
    34    35    36    1
    35    35    37    1
    36    35    38    1
    37    38    39    1
    38    15     2    1
    39    13     4    1
    40    22    16   ar
    41    13     7    1
    42    29    26    1
    43    24    25    1
    44    39    40    1
@<TRIPOS>MOLECULE
*****
 40 44 0 0 0
SMALL
GASTEIGER

@<TRIPOS>ATOM
      1 C          59.0164   94.2240   -6.1421 C.3     1  UNL1        0.0177
      2 C          58.1959   94.4870   -4.9141 C.3     1  UNL1        0.0627
      3 C          56.7771   94.9555   -5.0463 C.3     1  UNL1        0.0436
      4 C          55.9566   95.2186   -3.8184 C.2     1  UNL1       -0.0044
      5 C          56.5551   95.0131   -2.4584 C.2     1  UNL1        0.0735
      6 N          55.5104   95.3513   -1.4365 N.2     1  UNL1       -0.2523
      7 C          54.2664   95.7658   -2.1650 C.2     1  UNL1        0.0629
      8 C          52.9181   96.2073   -1.6780 C.3     1  UNL1        0.0741
      9 C          51.8456   96.5667   -2.6631 C.2     1  UNL1        0.0098
     10 C          52.1214   96.4847   -4.1353 C.2     1  UNL1        0.1363
     11 F          51.0489   96.8441   -5.1204 F       1  UNL1       -0.2045
     12 C          53.4697   96.0432   -4.6223 C.2     1  UNL1        0.0302
     13 C          54.5422   95.6837   -3.6371 C.2     1  UNL1        0.0134
     14 C          57.9739   94.5446   -2.3263 C.3     1  UNL1        0.1250
     15 N          58.7943   94.2816   -3.5541 N.3     1  UNL1       -0.2618
     16 C          58.5723   94.3392   -0.9662 C.ar    1  UNL1        0.0529
     17 C          58.5529   92.9782   -0.3361 C.ar    1  UNL1        0.1411
     18 F          57.9351   91.8225   -1.0660 F       1  UNL1       -0.2043
     19 C          59.1513   92.7728    1.0240 C.ar    1  UNL1        0.0438
     20 C          59.7692   93.9284    1.7539 C.ar    1  UNL1        0.0492
     21 C          59.7886   95.2895    1.1237 C.ar    1  UNL1        0.0438
     22 C          59.1902   95.4949   -0.2363 C.ar    1  UNL1        0.1411
     23 F          59.2095   96.8559   -0.8665 F       1  UNL1       -0.2043
     24 N          60.3676   93.7230    3.1139 N.pl3   1  UNL1       -0.3316
     25 H          61.0484   94.3487    3.4517 H       1  UNL1        0.1468
     26 C          59.9287   92.5641    3.9592 C.3     1  UNL1        0.1014
     27 C          58.6101   92.0621    4.4685 C.3     1  UNL1        0.0933
     28 N          59.3080   90.9253    5.1546 N.3     1  UNL1       -0.2697
     29 C          60.6265   91.4273    4.6452 C.3     1  UNL1        0.0933
     30 C          58.8691   89.7665    5.9999 C.3     1  UNL1        0.0751
     31 C          59.6614   89.3811    7.2138 C.3     1  UNL1        0.0554
     32 C          59.4058   88.0669    7.8901 C.3     1  UNL1        0.1947
     33 F          60.2601   86.8775    7.5652 F       1  UNL1       -0.2343
     34 C          60.2132   93.8131   -3.4220 C.3     1  UNL1        0.1425
     35 C          61.2643   94.7439   -2.8941 C.3     1  UNL1        0.3049
     36 F          61.8987   93.6060   -2.1507 F       1  UNL1       -0.2001
     37 F          60.6298   95.8819   -3.6374 F       1  UNL1       -0.2001
     38 C          62.3153   95.6748   -2.3662 C.3     1  UNL1        0.2057
     39 O          62.7294   95.5993   -0.9264 O.3     1  UNL1       -0.3771
     40 H          61.9846   95.8586   -0.3617 H       1  UNL1        0.2106
@<TRIPOS>BOND
     1     2     1    1
     2     2     3    1
     3     3     4    1
     4     4     5    2
     5     5     6    1
     6     6     7    2
     7     7     8    1
     8     8     9    1
     9     9    10    2
    10    10    11    1
    11    10    12    1
    12    12    13    2
    13     5    14    1
    14    14    16    1
    15    16    17   ar
    16    17    18    1
    17    17    19   ar
    18    19    20   ar
    19    20    24    1
    20    24    26    1
    21    26    27    1
    22    27    28    1
    23    28    30    1
    24    30    31    1
    25    31    32    1
    26    32    33    1
    27    28    29    1
    28    20    21   ar
    29    21    22   ar
    30    22    23    1
    31    14    15    1
    32    15    34    1
    33    34    35    1
    34    35    36    1
    35    35    37    1
    36    35    38    1
    37    38    39    1
    38    15     2    1
    39    13     4    1
    40    22    16   ar
    41    13     7    1
    42    29    26    1
    43    24    25    1
    44    39    40    1
