@<TRIPOS>MOLECULE
*****
 62 69 0 0 0
SMALL
GASTEIGER

@<TRIPOS>ATOM
      1 N          65.3415   89.3152   14.6864 N.3     1  UNL1       -0.1862
      2 C          65.5233   88.0668   15.4977 C.3     1  UNL1        0.1775
      3 C          64.7940   86.8124   15.1176 C.2     1  UNL1        0.2452
      4 O          64.9759   85.5639   15.9289 O.2     1  UNL1       -0.2732
      5 N          63.8827   86.8064   13.9261 N.am    1  UNL1       -0.2541
      6 C          63.1533   85.5520   13.5460 C.3     1  UNL1        0.1577
      7 C          62.2420   85.5461   12.3546 C.2     1  UNL1        0.2445
      8 O          61.5126   84.2917   11.9745 O.2     1  UNL1       -0.2731
      9 N          62.0601   86.7946   11.5433 N.am    1  UNL1       -0.2705
     10 C          62.7895   88.0490   11.9234 C.3     1  UNL1        0.1359
     11 C          63.7008   88.0549   13.1149 C.3     1  UNL1        0.1908
     12 N          64.4302   89.3093   13.4950 N.am    1  UNL1       -0.1863
     13 C          64.2483   90.5578   12.6836 C.2     1  UNL1        0.3191
     14 O          63.3370   90.5518   11.4922 O.2     1  UNL1       -0.2512
     15 N          64.9777   91.8122   13.0637 N.am    1  UNL1       -0.2836
     16 H          65.5758   91.8160   13.8457 H       1  UNL1        0.1513
     17 C          66.0709   90.5696   15.0665 C.3     1  UNL1        0.1188
     18 C          68.1432   92.1213   14.8482 C.2     1  UNL1       -0.0034
     19 C          67.4095   90.8716   14.4609 C.2     1  UNL1       -0.0071
     20 C          63.3352   84.3036   14.3573 C.3     1  UNL1        0.0556
     21 C          63.1367   82.9599   13.7208 C.ar    1  UNL1       -0.0198
     22 C          63.9773   82.5549   12.5463 C.ar    1  UNL1       -0.0011
     23 C          63.7788   81.2112   11.9098 C.ar    1  UNL1        0.0363
     24 C          62.7398   80.2726   12.4477 C.ar    1  UNL1        0.1337
     25 O          62.5414   78.9289   11.8112 O.3     1  UNL1       -0.5055
     26 C          61.8992   80.6776   13.6223 C.ar    1  UNL1        0.0363
     27 C          62.0977   82.0213   14.2588 C.ar    1  UNL1       -0.0011
     28 H          63.0664   78.6759   11.0776 H       1  UNL1        0.2922
     29 C          61.1488   86.7887   10.3519 C.3     1  UNL1        0.1217
     30 C          60.5533   88.0733    9.8567 C.ar    1  UNL1        0.0135
     31 C          60.3633   89.2244   10.7995 C.ar    1  UNL1       -0.0012
     32 C          59.7678   90.5089   10.3044 C.ar    1  UNL1       -0.0002
     33 C          59.3622   90.6424    8.8665 C.ar    1  UNL1        0.0016
     34 C          59.5522   89.4914    7.9237 C.ar    1  UNL1        0.0214
     35 C          59.2498   89.3296    6.4634 C.ar    1  UNL1        0.0721
     36 C          59.6585   87.9450    6.0560 C.ar    1  UNL1        0.0805
     37 N          60.2134   87.2511    7.2645 N.ar    1  UNL1       -0.3241
     38 C          60.7413   85.8479    7.3106 C.3     1  UNL1        0.1305
     39 C          60.1477   88.2068    8.4188 C.ar    1  UNL1        0.0577
     40 C          58.6450   90.3698    5.5677 C.2     1  UNL1        0.2506
     41 O          57.1663   90.6198    5.6006 O.2     1  UNL1       -0.2699
     42 N          59.5188   91.1600    4.6392 N.am    1  UNL1       -0.2732
     43 C          58.9140   92.2002    3.7436 C.3     1  UNL1        0.1110
     44 C          59.7878   92.9904    2.8151 C.3     1  UNL1        0.0939
     45 N          61.2665   92.7404    2.7823 N.3     1  UNL1       -0.2698
     46 C          61.8713   91.7001    3.6780 C.3     1  UNL1        0.0939
     47 C          60.9974   90.9099    4.6065 C.3     1  UNL1        0.1110
     48 C          62.1403   93.5305    1.8538 C.3     1  UNL1        0.0722
     49 C          61.6006   94.0032    0.5365 C.3     1  UNL1        0.0187
     50 C          61.1644   95.4290    0.3728 C.3     1  UNL1        0.0185
     51 C          60.6247   95.9016   -0.9445 C.3     1  UNL1        0.0686
     52 N          60.5212   94.9484   -2.0981 N.3     1  UNL1       -0.2975
     53 C          60.9574   93.5226   -1.9344 C.3     1  UNL1        0.0686
     54 C          61.4971   93.0500   -0.6171 C.3     1  UNL1        0.0185
     55 H          61.0790   95.3418   -2.8561 H       1  UNL1        0.1232
     56 C          64.7958   93.0606   12.2524 C.3     1  UNL1        0.1177
     57 C          65.8330   93.4576   11.2441 C.ar    1  UNL1       -0.0025
     58 C          65.9093   94.8772   10.7659 C.ar    1  UNL1       -0.0026
     59 C          66.9465   95.2742    9.7576 C.ar    1  UNL1       -0.0003
     60 C          67.9073   94.2516    9.2275 C.ar    1  UNL1       -0.0000
     61 C          67.8310   92.8318    9.7058 C.ar    1  UNL1       -0.0003
     62 C          66.7938   92.4348   10.7141 C.ar    1  UNL1       -0.0026
@<TRIPOS>BOND
     1    18    19    2
     2    19    17    1
     3    17     1    1
     4     1     2    1
     5     2     3    1
     6     3     4    2
     7     3     5   am
     8     5     6    1
     9     6    20    1
    10    20    21    1
    11    21    22   ar
    12    22    23   ar
    13    23    24   ar
    14    24    25    1
    15    24    26   ar
    16    26    27   ar
    17     6     7    1
    18     7     8    2
    19     7     9   am
    20     9    29    1
    21    29    30    1
    22    30    31   ar
    23    31    32   ar
    24    32    33   ar
    25    33    34   ar
    26    34    35   ar
    27    35    40    1
    28    40    41    2
    29    40    42   am
    30    42    43    1
    31    43    44    1
    32    44    45    1
    33    45    48    1
    34    48    49    1
    35    49    50    1
    36    50    51    1
    37    51    52    1
    38    52    53    1
    39    53    54    1
    40    45    46    1
    41    46    47    1
    42    35    36   ar
    43    36    37   ar
    44    37    38    1
    45    37    39   ar
    46     9    10    1
    47    11    10    1
    48    11    12    1
    49    12    13   am
    50    13    14    2
    51    13    15   am
    52    15    56    1
    53    56    57    1
    54    57    58   ar
    55    58    59   ar
    56    59    60   ar
    57    60    61   ar
    58    61    62   ar
    59    12     1    1
    60    62    57   ar
    61    11     5    1
    62    27    21   ar
    63    39    30   ar
    64    39    34   ar
    65    47    42    1
    66    54    49    1
    67    25    28    1
    68    52    55    1
    69    15    16    1
