@<TRIPOS>MOLECULE
*****
 26 29 0 0 0
SMALL
GASTEIGER

@<TRIPOS>ATOM
      1 C          65.2942   92.6862   11.3151 C.ar    1  UNL1        0.0664
      2 C          64.1791   91.9064   10.6840 C.ar    1  UNL1        0.0058
      3 C          63.4837   90.8286   11.4617 C.ar    1  UNL1        0.0017
      4 C          63.9034   90.5308   12.8707 C.ar    1  UNL1        0.0013
      5 C          65.0185   91.3106   13.5018 C.ar    1  UNL1        0.0142
      6 C          65.7139   92.3883   12.7241 C.ar    1  UNL1        0.0459
      7 N          66.8290   93.1682   13.3553 N.pl3   1  UNL1       -0.3569
      8 H          67.1045   92.9726   14.2801 H       1  UNL1        0.1424
      9 H          67.2855   93.8755   12.8449 H       1  UNL1        0.1424
     10 C          62.3686   90.0488   10.8306 C.ar    1  UNL1        0.0190
     11 C          60.9666   90.5808   10.8678 C.ar    1  UNL1        0.1002
     12 N          59.8515   89.8008   10.2366 N.ar    1  UNL1       -0.2297
     13 C          60.1385   88.4890    9.5682 C.ar    1  UNL1        0.1245
     14 C          61.5405   87.9571    9.5309 C.ar    1  UNL1        0.0102
     15 C          62.6556   88.7369   10.1621 C.ar    1  UNL1        0.0001
     16 C          61.5190   86.6442    8.8058 C.3     1  UNL1        0.0396
     17 C          62.9897   86.3749    8.9254 C.3     1  UNL1        0.0062
     18 C          62.1018   85.3908    8.2233 C.3     1  UNL1        0.0062
     19 C          60.1037   86.3647    8.3949 C.3     1  UNL1        0.0922
     20 N          59.2504   87.5049    8.8661 N.pl3   1  UNL1       -0.3181
     21 H          58.2783   87.5920    8.7372 H       1  UNL1        0.1482
     22 C          67.9755   94.5445    9.0551 C.3     1  UNL1        0.1152
     23 N          67.2800   93.4668    9.8328 N.am    1  UNL1       -0.2725
     24 C          67.8751   92.0918    9.9061 C.3     1  UNL1        0.1152
     25 C          65.9896   93.7639   10.5374 C.2     1  UNL1        0.2503
     26 O          65.3946   95.1389   10.4642 O.2     1  UNL1       -0.2699
@<TRIPOS>BOND
     1    22    23    1
     2    23    24    1
     3    23    25   am
     4    25    26    2
     5    25     1    1
     6     1     2   ar
     7     2     3   ar
     8     3    10    1
     9    10    11   ar
    10    11    12   ar
    11    12    13   ar
    12    13    14   ar
    13    14    15   ar
    14    14    16    1
    15    16    17    1
    16    17    18    1
    17    16    19    1
    18    19    20    1
    19     3     4   ar
    20     4     5   ar
    21     5     6   ar
    22     6     7    1
    23     6     1   ar
    24    15    10   ar
    25    18    16    1
    26    20    13    1
    27    20    21    1
    28     7     8    1
    29     7     9    1
@<TRIPOS>MOLECULE
*****
 26 29 0 0 0
SMALL
GASTEIGER

@<TRIPOS>ATOM
      1 C          64.2367   89.4684   14.7243 C.ar    1  UNL1        0.0664
      2 C          64.2815   88.0302   14.3007 C.ar    1  UNL1        0.0058
      3 C          63.7314   86.9653   15.2026 C.ar    1  UNL1        0.0017
      4 C          63.1366   87.3386   16.5280 C.ar    1  UNL1        0.0013
      5 C          63.0918   88.7769   16.9516 C.ar    1  UNL1        0.0142
      6 C          63.6419   89.8418   16.0497 C.ar    1  UNL1        0.0459
      7 N          63.5971   91.2801   16.4733 N.pl3   1  UNL1       -0.3569
      8 H          63.2067   91.5251   17.3433 H       1  UNL1        0.1424
      9 H          63.9581   91.9791   15.8814 H       1  UNL1        0.1424
     10 C          63.7762   85.5270   14.7791 C.ar    1  UNL1        0.0190
     11 C          63.8753   84.4437   15.8119 C.ar    1  UNL1        0.1002
     12 N          63.9200   83.0055   15.3883 N.ar    1  UNL1       -0.2297
     13 C          63.8658   82.6505   13.9319 C.ar    1  UNL1        0.1245
     14 C          63.7667   83.7338   12.8991 C.ar    1  UNL1        0.0102
     15 C          63.7219   85.1721   13.3226 C.ar    1  UNL1        0.0001
     16 C          63.7309   83.0839   11.5477 C.3     1  UNL1        0.0396
     17 C          63.6352   84.3587   10.7631 C.3     1  UNL1        0.0062
     18 C          63.6605   83.0393   10.0500 C.3     1  UNL1        0.0062
     19 C          63.8078   81.5989   11.7453 C.3     1  UNL1        0.0922
     20 N          63.8912   81.3311   13.2188 N.pl3   1  UNL1       -0.3181
     21 H          63.9519   80.4449   13.6434 H       1  UNL1        0.1482
     22 C          64.6045   91.9699   11.6653 C.3     1  UNL1        0.1152
     23 N          64.0545   90.9050   12.5672 N.am    1  UNL1       -0.2725
     24 C          62.7721   90.2117   12.2138 C.3     1  UNL1        0.1152
     25 C          64.7867   90.5333   13.8224 C.2     1  UNL1        0.2503
     26 O          66.0691   91.2267   14.1757 O.2     1  UNL1       -0.2699
@<TRIPOS>BOND
     1    22    23    1
     2    23    24    1
     3    23    25   am
     4    25    26    2
     5    25     1    1
     6     1     2   ar
     7     2     3   ar
     8     3    10    1
     9    10    11   ar
    10    11    12   ar
    11    12    13   ar
    12    13    14   ar
    13    14    15   ar
    14    14    16    1
    15    16    17    1
    16    17    18    1
    17    16    19    1
    18    19    20    1
    19     3     4   ar
    20     4     5   ar
    21     5     6   ar
    22     6     7    1
    23     6     1   ar
    24    15    10   ar
    25    18    16    1
    26    20    13    1
    27    20    21    1
    28     7     8    1
    29     7     9    1
@<TRIPOS>MOLECULE
*****
 26 29 0 0 0
SMALL
GASTEIGER

@<TRIPOS>ATOM
      1 C          63.1499   83.8481   13.5102 C.ar    1  UNL1        0.0664
      2 C          62.5771   84.8482   12.5501 C.ar    1  UNL1        0.0058
      3 C          62.9854   86.2891   12.6357 C.ar    1  UNL1        0.0017
      4 C          63.9663   86.7298   13.6814 C.ar    1  UNL1        0.0013
      5 C          64.5391   85.7297   14.6415 C.ar    1  UNL1        0.0142
      6 C          64.1308   84.2889   14.5559 C.ar    1  UNL1        0.0459
      7 N          64.7036   83.2888   15.5161 N.pl3   1  UNL1       -0.3569
      8 H          65.3475   83.5781   16.2024 H       1  UNL1        0.1424
      9 H          64.4357   82.3431   15.4600 H       1  UNL1        0.1424
     10 C          62.4127   87.2892   11.6756 C.ar    1  UNL1        0.0190
     11 C          62.7234   88.7476   11.8377 C.ar    1  UNL1        0.1002
     12 N          62.1506   89.7477   10.8775 N.ar    1  UNL1       -0.2297
     13 C          61.2672   89.2892    9.7554 C.ar    1  UNL1        0.1245
     14 C          60.9565   87.8307    9.5932 C.ar    1  UNL1        0.0102
     15 C          61.5292   86.8306   10.5533 C.ar    1  UNL1        0.0001
     16 C          60.0609   87.6775    8.3998 C.3     1  UNL1        0.0396
     17 C          59.9318   86.1859    8.4911 C.3     1  UNL1        0.0062
     18 C          59.2282   86.9340    7.3978 C.3     1  UNL1        0.0062
     19 C          59.8181   89.0413    7.8242 C.3     1  UNL1        0.0922
     20 N          60.5636   90.0374    8.6620 N.pl3   1  UNL1       -0.3181
     21 H          60.5870   91.0112    8.5194 H       1  UNL1        0.1482
     22 C          62.7295   80.1441   12.1489 C.3     1  UNL1        0.1152
     23 N          63.1377   81.5849   12.2345 N.am    1  UNL1       -0.2725
     24 C          63.9421   82.2034   11.1297 C.3     1  UNL1        0.1152
     25 C          62.7416   82.4073   13.4247 C.2     1  UNL1        0.2503
     26 O          61.9372   81.7888   14.5294 O.2     1  UNL1       -0.2699
@<TRIPOS>BOND
     1    22    23    1
     2    23    24    1
     3    23    25   am
     4    25    26    2
     5    25     1    1
     6     1     2   ar
     7     2     3   ar
     8     3    10    1
     9    10    11   ar
    10    11    12   ar
    11    12    13   ar
    12    13    14   ar
    13    14    15   ar
    14    14    16    1
    15    16    17    1
    16    17    18    1
    17    16    19    1
    18    19    20    1
    19     3     4   ar
    20     4     5   ar
    21     5     6   ar
    22     6     7    1
    23     6     1   ar
    24    15    10   ar
    25    18    16    1
    26    20    13    1
    27    20    21    1
    28     7     8    1
    29     7     9    1
@<TRIPOS>MOLECULE
*****
 26 29 0 0 0
SMALL
GASTEIGER

@<TRIPOS>ATOM
      1 C          63.0727   89.0017   12.1128 C.ar    1  UNL1        0.0664
      2 C          63.0498   87.5210   12.3517 C.ar    1  UNL1        0.0058
      3 C          63.6836   86.9505   13.5857 C.ar    1  UNL1        0.0017
      4 C          64.3404   87.8607   14.5808 C.ar    1  UNL1        0.0013
      5 C          64.3633   89.3413   14.3419 C.ar    1  UNL1        0.0142
      6 C          63.7295   89.9118   13.1079 C.ar    1  UNL1        0.0459
      7 N          63.7525   91.3926   12.8690 N.pl3   1  UNL1       -0.3569
      8 H          64.1836   91.9899   13.5221 H       1  UNL1        0.1424
      9 H          63.3366   91.7671   12.0591 H       1  UNL1        0.1424
     10 C          63.6606   85.4698   13.8247 C.ar    1  UNL1        0.0190
     11 C          63.7874   84.9332   15.2196 C.ar    1  UNL1        0.1002
     12 N          63.7644   83.4524   15.4585 N.ar    1  UNL1       -0.2297
     13 C          63.6146   82.5085   14.3024 C.ar    1  UNL1        0.1245
     14 C          63.4878   83.0452   12.9075 C.ar    1  UNL1        0.0102
     15 C          63.5108   84.5258   12.6685 C.ar    1  UNL1        0.0001
     16 C          63.3538   81.8797   11.9728 C.3     1  UNL1        0.0396
     17 C          63.2505   82.6956   10.7185 C.3     1  UNL1        0.0062
     18 C          63.1948   81.1985   10.6459 C.3     1  UNL1        0.0062
     19 C          63.3977   80.6226   12.7902 C.3     1  UNL1        0.0922
     20 N          63.5590   81.0112   14.2299 N.pl3   1  UNL1       -0.3181
     21 H          63.6179   80.3923   14.9933 H       1  UNL1        0.1482
     22 C          60.4425   89.6817    9.2198 C.3     1  UNL1        0.1152
     23 N          61.0763   89.1112   10.4538 N.am    1  UNL1       -0.2725
     24 C          60.3474   88.0796   11.2630 C.3     1  UNL1        0.1152
     25 C          62.4389   89.5722   10.8788 C.2     1  UNL1        0.2503
     26 O          63.1678   90.6037   10.0697 O.2     1  UNL1       -0.2699
@<TRIPOS>BOND
     1    22    23    1
     2    23    24    1
     3    23    25   am
     4    25    26    2
     5    25     1    1
     6     1     2   ar
     7     2     3   ar
     8     3    10    1
     9    10    11   ar
    10    11    12   ar
    11    12    13   ar
    12    13    14   ar
    13    14    15   ar
    14    14    16    1
    15    16    17    1
    16    17    18    1
    17    16    19    1
    18    19    20    1
    19     3     4   ar
    20     4     5   ar
    21     5     6   ar
    22     6     7    1
    23     6     1   ar
    24    15    10   ar
    25    18    16    1
    26    20    13    1
    27    20    21    1
    28     7     8    1
    29     7     9    1
@<TRIPOS>MOLECULE
*****
 26 29 0 0 0
SMALL
GASTEIGER

@<TRIPOS>ATOM
      1 C          61.9629   87.5649   10.9801 C.ar    1  UNL1        0.0664
      2 C          62.9779   88.6074   11.3451 C.ar    1  UNL1        0.0058
      3 C          62.7108   90.0522   11.0434 C.ar    1  UNL1        0.0017
      4 C          61.4288   90.4547   10.3767 C.ar    1  UNL1        0.0013
      5 C          60.4139   89.4122   10.0117 C.ar    1  UNL1        0.0142
      6 C          60.6809   87.9674   10.3134 C.ar    1  UNL1        0.0459
      7 N          59.6659   86.9250    9.9483 N.pl3   1  UNL1       -0.3569
      8 H          58.8245   87.1892    9.5108 H       1  UNL1        0.1424
      9 H          59.8411   85.9767   10.1463 H       1  UNL1        0.1424
     10 C          63.7258   91.0947   11.4084 C.ar    1  UNL1        0.0190
     11 C          64.2361   92.0427   10.3640 C.ar    1  UNL1        0.1002
     12 N          65.2511   93.0851   10.7291 N.ar    1  UNL1       -0.2297
     13 C          65.7557   93.1794   12.1385 C.ar    1  UNL1        0.1245
     14 C          65.2454   92.2314   13.1828 C.ar    1  UNL1        0.0102
     15 C          64.2304   91.1889   12.8178 C.ar    1  UNL1        0.0001
     16 C          65.9221   92.5626   14.4799 C.3     1  UNL1        0.0396
     17 C          65.2405   91.4988   15.2884 C.3     1  UNL1        0.0062
     18 C          66.2326   92.4159   15.9400 C.3     1  UNL1        0.0062
     19 C          66.8506   93.7154   14.2371 C.3     1  UNL1        0.0922
     20 N          66.7478   94.0966   12.7900 N.pl3   1  UNL1       -0.3181
     21 H          67.2443   94.8215   12.3459 H       1  UNL1        0.1482
     22 C          62.9619   83.7550   10.4941 C.3     1  UNL1        0.1152
     23 N          62.6949   85.1998   10.1923 N.am    1  UNL1       -0.2725
     24 C          62.8928   85.7245    8.8011 C.3     1  UNL1        0.1152
     25 C          62.2300   86.1201   11.2818 C.2     1  UNL1        0.2503
     26 O          62.0320   85.5954   12.6730 O.2     1  UNL1       -0.2699
@<TRIPOS>BOND
     1    22    23    1
     2    23    24    1
     3    23    25   am
     4    25    26    2
     5    25     1    1
     6     1     2   ar
     7     2     3   ar
     8     3    10    1
     9    10    11   ar
    10    11    12   ar
    11    12    13   ar
    12    13    14   ar
    13    14    15   ar
    14    14    16    1
    15    16    17    1
    16    17    18    1
    17    16    19    1
    18    19    20    1
    19     3     4   ar
    20     4     5   ar
    21     5     6   ar
    22     6     7    1
    23     6     1   ar
    24    15    10   ar
    25    18    16    1
    26    20    13    1
    27    20    21    1
    28     7     8    1
    29     7     9    1
@<TRIPOS>MOLECULE
*****
 26 29 0 0 0
SMALL
GASTEIGER

@<TRIPOS>ATOM
      1 C          63.8575   85.8492   14.6504 C.ar    1  UNL1        0.0664
      2 C          64.2403   87.1533   14.0159 C.ar    1  UNL1        0.0058
      3 C          64.0504   88.4374   14.7676 C.ar    1  UNL1        0.0017
      4 C          63.4777   88.4173   16.1538 C.ar    1  UNL1        0.0013
      5 C          63.0950   87.1132   16.7884 C.ar    1  UNL1        0.0142
      6 C          63.2849   85.8291   16.0367 C.ar    1  UNL1        0.0459
      7 N          62.9021   84.5249   16.6713 N.pl3   1  UNL1       -0.3569
      8 H          62.5262   84.5118   17.5811 H       1  UNL1        0.1424
      9 H          63.0267   83.6821   16.1780 H       1  UNL1        0.1424
     10 C          64.4331   89.7416   14.1330 C.ar    1  UNL1        0.0190
     11 C          63.8206   90.1478   12.8254 C.ar    1  UNL1        0.1002
     12 N          64.2035   91.4520   12.1909 N.ar    1  UNL1       -0.2297
     13 C          65.1987   92.3499   12.8641 C.ar    1  UNL1        0.1245
     14 C          65.8112   91.9438   14.1717 C.ar    1  UNL1        0.0102
     15 C          65.4284   90.6396   14.8062 C.ar    1  UNL1        0.0001
     16 C          66.7571   93.0274   14.5970 C.3     1  UNL1        0.0396
     17 C          67.1907   92.3658   15.8714 C.3     1  UNL1        0.0062
     18 C          67.7581   93.7005   15.4885 C.3     1  UNL1        0.0062
     19 C          66.7292   94.1034   13.5521 C.3     1  UNL1        0.0922
     20 N          65.7661   93.6847   12.4811 N.pl3   1  UNL1       -0.3181
     21 H          65.5451   94.1961   11.6694 H       1  UNL1        0.1482
     22 C          63.4986   83.0475   11.8627 C.3     1  UNL1        0.1152
     23 N          63.3087   84.3316   12.6143 N.am    1  UNL1       -0.2725
     24 C          62.3801   85.3822   12.0816 C.3     1  UNL1        0.1152
     25 C          64.0474   84.5651   13.8988 C.2     1  UNL1        0.2503
     26 O          64.9760   83.5144   14.4315 O.2     1  UNL1       -0.2699
@<TRIPOS>BOND
     1    22    23    1
     2    23    24    1
     3    23    25   am
     4    25    26    2
     5    25     1    1
     6     1     2   ar
     7     2     3   ar
     8     3    10    1
     9    10    11   ar
    10    11    12   ar
    11    12    13   ar
    12    13    14   ar
    13    14    15   ar
    14    14    16    1
    15    16    17    1
    16    17    18    1
    17    16    19    1
    18    19    20    1
    19     3     4   ar
    20     4     5   ar
    21     5     6   ar
    22     6     7    1
    23     6     1   ar
    24    15    10   ar
    25    18    16    1
    26    20    13    1
    27    20    21    1
    28     7     8    1
    29     7     9    1
@<TRIPOS>MOLECULE
*****
 26 29 0 0 0
SMALL
GASTEIGER

@<TRIPOS>ATOM
      1 C          61.8905   87.2592   10.1978 C.ar    1  UNL1        0.0664
      2 C          62.8191   88.0683   11.0539 C.ar    1  UNL1        0.0058
      3 C          62.4044   89.4280   11.5327 C.ar    1  UNL1        0.0017
      4 C          61.0611   89.9786   11.1555 C.ar    1  UNL1        0.0013
      5 C          60.1325   89.1694   10.2993 C.ar    1  UNL1        0.0142
      6 C          60.5472   87.8098    9.8205 C.ar    1  UNL1        0.0459
      7 N          59.6184   87.0007    8.9643 N.pl3   1  UNL1       -0.3569
      8 H          58.7368   87.3621    8.7167 H       1  UNL1        0.1424
      9 H          59.8906   86.1083    8.6500 H       1  UNL1        0.1424
     10 C          63.3331   90.2371   12.3889 C.ar    1  UNL1        0.0190
     11 C          63.5091   89.8922   13.8380 C.ar    1  UNL1        0.1002
     12 N          64.4378   90.7014   14.6941 N.ar    1  UNL1       -0.2297
     13 C          65.1903   91.8554   14.1010 C.ar    1  UNL1        0.1245
     14 C          65.0143   92.2004   12.6519 C.ar    1  UNL1        0.0102
     15 C          64.0856   91.3913   11.7957 C.ar    1  UNL1        0.0001
     16 C          65.8830   93.3850   12.3485 C.3     1  UNL1        0.0396
     17 C          65.5090   93.4868   10.8995 C.3     1  UNL1        0.0062
     18 C          66.4865   94.4582   11.4917 C.3     1  UNL1        0.0062
     19 C          66.5960   93.7722   13.6102 C.3     1  UNL1        0.0922
     20 N          66.1679   92.8269   14.6933 N.pl3   1  UNL1       -0.3181
     21 H          66.4747   92.8414   15.6287 H       1  UNL1        0.1482
     22 C          63.1280   83.4886   10.2291 C.3     1  UNL1        0.1152
     23 N          62.7134   84.8483   10.7079 N.am    1  UNL1       -0.2725
     24 C          62.7069   85.1567   12.1758 C.3     1  UNL1        0.1152
     25 C          62.3052   85.8995    9.7189 C.2     1  UNL1        0.2503
     26 O          62.3117   85.5911    8.2510 O.2     1  UNL1       -0.2699
@<TRIPOS>BOND
     1    22    23    1
     2    23    24    1
     3    23    25   am
     4    25    26    2
     5    25     1    1
     6     1     2   ar
     7     2     3   ar
     8     3    10    1
     9    10    11   ar
    10    11    12   ar
    11    12    13   ar
    12    13    14   ar
    13    14    15   ar
    14    14    16    1
    15    16    17    1
    16    17    18    1
    17    16    19    1
    18    19    20    1
    19     3     4   ar
    20     4     5   ar
    21     5     6   ar
    22     6     7    1
    23     6     1   ar
    24    15    10   ar
    25    18    16    1
    26    20    13    1
    27    20    21    1
    28     7     8    1
    29     7     9    1
@<TRIPOS>MOLECULE
*****
 26 29 0 0 0
SMALL
GASTEIGER

@<TRIPOS>ATOM
      1 C          63.3373   85.9465   12.7693 C.ar    1  UNL1        0.0664
      2 C          63.7934   87.0386   13.6909 C.ar    1  UNL1        0.0058
      3 C          63.5113   88.4723   13.3523 C.ar    1  UNL1        0.0017
      4 C          62.7731   88.8140   12.0920 C.ar    1  UNL1        0.0013
      5 C          62.3169   87.7219   11.1704 C.ar    1  UNL1        0.0142
      6 C          62.5991   86.2882   11.5091 C.ar    1  UNL1        0.0459
      7 N          62.1429   85.1961   10.5874 N.pl3   1  UNL1       -0.3569
      8 H          61.6583   85.4205    9.7603 H       1  UNL1        0.1424
      9 H          62.3280   84.2551   10.8096 H       1  UNL1        0.1424
     10 C          63.9674   89.5644   14.2739 C.ar    1  UNL1        0.0190
     11 C          63.1140   89.9671   15.4398 C.ar    1  UNL1        0.1002
     12 N          63.5702   91.0592   16.3614 N.ar    1  UNL1       -0.2297
     13 C          64.8798   91.7485   16.1169 C.ar    1  UNL1        0.1245
     14 C          65.7332   91.3459   14.9510 C.ar    1  UNL1        0.0102
     15 C          65.2771   90.2538   14.0294 C.ar    1  UNL1        0.0001
     16 C          66.9664   92.1996   14.9625 C.3     1  UNL1        0.0396
     17 C          67.5893   91.5919   13.7407 C.3     1  UNL1        0.0062
     18 C          68.2951   92.6946   14.4728 C.3     1  UNL1        0.0062
     19 C          66.8752   93.1300   16.1356 C.3     1  UNL1        0.0922
     20 N          65.5856   92.8512   16.8491 N.pl3   1  UNL1       -0.3181
     21 H          65.2596   93.3112   17.6562 H       1  UNL1        0.1482
     22 C          63.2717   82.4563   14.6572 C.3     1  UNL1        0.1152
     23 N          62.9896   83.8900   14.3185 N.am    1  UNL1       -0.2725
     24 C          62.0776   84.7012   15.1905 C.3     1  UNL1        0.1152
     25 C          63.6194   84.5127   13.1080 C.2     1  UNL1        0.2503
     26 O          64.5314   83.7016   12.2360 O.2     1  UNL1       -0.2699
@<TRIPOS>BOND
     1    22    23    1
     2    23    24    1
     3    23    25   am
     4    25    26    2
     5    25     1    1
     6     1     2   ar
     7     2     3   ar
     8     3    10    1
     9    10    11   ar
    10    11    12   ar
    11    12    13   ar
    12    13    14   ar
    13    14    15   ar
    14    14    16    1
    15    16    17    1
    16    17    18    1
    17    16    19    1
    18    19    20    1
    19     3     4   ar
    20     4     5   ar
    21     5     6   ar
    22     6     7    1
    23     6     1   ar
    24    15    10   ar
    25    18    16    1
    26    20    13    1
    27    20    21    1
    28     7     8    1
    29     7     9    1
@<TRIPOS>MOLECULE
*****
 26 29 0 0 0
SMALL
GASTEIGER

@<TRIPOS>ATOM
      1 C          60.8455   87.1490    8.7214 C.ar    1  UNL1        0.0664
      2 C          61.5842   86.5949    9.9035 C.ar    1  UNL1        0.0058
      3 C          62.0090   87.5060   11.0168 C.ar    1  UNL1        0.0017
      4 C          61.6952   88.9712   10.9480 C.ar    1  UNL1        0.0013
      5 C          60.9564   89.5253    9.7659 C.ar    1  UNL1        0.0142
      6 C          60.5316   88.6142    8.6526 C.ar    1  UNL1        0.0459
      7 N          59.7929   89.1684    7.4705 N.pl3   1  UNL1       -0.3569
      8 H          59.5869   90.1300    7.4255 H       1  UNL1        0.1424
      9 H          59.5140   88.5704    6.7398 H       1  UNL1        0.1424
     10 C          62.7478   86.9519   12.1988 C.ar    1  UNL1        0.0190
     11 C          63.4756   87.8765   13.1291 C.ar    1  UNL1        0.1002
     12 N          64.2143   87.3223   14.3112 N.ar    1  UNL1       -0.2297
     13 C          64.2252   85.8437   14.5629 C.ar    1  UNL1        0.1245
     14 C          63.4973   84.9191   13.6326 C.ar    1  UNL1        0.0102
     15 C          62.7586   85.4732   12.4506 C.ar    1  UNL1        0.0001
     16 C          63.6840   83.5172   14.1325 C.3     1  UNL1        0.0396
     17 C          62.8821   82.8569   13.0505 C.3     1  UNL1        0.0062
     18 C          63.5186   82.0264   14.1252 C.3     1  UNL1        0.0062
     19 C          64.5272   83.5754   15.3717 C.3     1  UNL1        0.0922
     20 N          64.8617   85.0132   15.6377 N.pl3   1  UNL1       -0.3181
     21 H          65.4038   85.3523   16.3863 H       1  UNL1        0.1482
     22 C          60.9598   84.3205    5.9399 C.3     1  UNL1        0.1152
     23 N          61.3846   85.2316    7.0532 N.am    1  UNL1       -0.2725
     24 C          62.7735   85.1364    7.6117 C.3     1  UNL1        0.1152
     25 C          60.4206   86.2379    7.6081 C.2     1  UNL1        0.2503
     26 O          59.0317   86.3332    7.0497 O.2     1  UNL1       -0.2699
@<TRIPOS>BOND
     1    22    23    1
     2    23    24    1
     3    23    25   am
     4    25    26    2
     5    25     1    1
     6     1     2   ar
     7     2     3   ar
     8     3    10    1
     9    10    11   ar
    10    11    12   ar
    11    12    13   ar
    12    13    14   ar
    13    14    15   ar
    14    14    16    1
    15    16    17    1
    16    17    18    1
    17    16    19    1
    18    19    20    1
    19     3     4   ar
    20     4     5   ar
    21     5     6   ar
    22     6     7    1
    23     6     1   ar
    24    15    10   ar
    25    18    16    1
    26    20    13    1
    27    20    21    1
    28     7     8    1
    29     7     9    1
