@<TRIPOS>MOLECULE
*****
 70 78 0 0 0
SMALL
GASTEIGER

@<TRIPOS>ATOM
      1 N          64.5353   83.2134   13.3657 N.3     1  UNL1       -0.1862
      2 C          65.1195   84.0585   14.4586 C.3     1  UNL1        0.1775
      3 C          64.6972   85.4902   14.6066 C.2     1  UNL1        0.2452
      4 O          65.2815   86.3353   15.6996 O.2     1  UNL1       -0.2732
      5 N          63.6908   86.0768   13.6617 N.am    1  UNL1       -0.2541
      6 C          63.2686   87.5086   13.8096 C.3     1  UNL1        0.1577
      7 C          62.2622   88.0952   12.8647 C.2     1  UNL1        0.2445
      8 O          61.8399   89.5269   13.0127 O.2     1  UNL1       -0.2731
      9 N          61.6779   87.2501   11.7718 N.am    1  UNL1       -0.2705
     10 C          62.1001   85.8184   11.6238 C.3     1  UNL1        0.1359
     11 C          63.1066   85.2317   12.5688 C.3     1  UNL1        0.1908
     12 N          63.5288   83.8000   12.4208 N.am    1  UNL1       -0.1863
     13 C          62.9446   82.9549   11.3278 C.2     1  UNL1        0.3191
     14 O          61.9381   83.5415   10.3829 O.2     1  UNL1       -0.2512
     15 N          63.3668   81.5232   11.1798 N.am    1  UNL1       -0.2836
     16 H          64.0274   81.1382   11.8000 H       1  UNL1        0.1513
     17 C          64.9575   81.7817   13.2177 C.3     1  UNL1        0.1188
     18 C          62.8299   80.5075   13.9922 C.2     1  UNL1       -0.0034
     19 C          64.3135   80.7191   14.0581 C.2     1  UNL1       -0.0071
     20 C          63.8528   88.3536   14.9025 C.3     1  UNL1        0.0556
     21 C          64.4036   89.7126   14.5867 C.ar    1  UNL1       -0.0198
     22 C          64.7666   90.6518   15.6985 C.ar    1  UNL1       -0.0011
     23 C          65.3174   92.0108   15.3826 C.ar    1  UNL1        0.0363
     24 C          65.5051   92.4306   13.9549 C.ar    1  UNL1        0.1337
     25 O          66.0559   93.7896   13.6390 O.3     1  UNL1       -0.5055
     26 C          65.1420   91.4915   12.8430 C.ar    1  UNL1        0.0363
     27 C          64.5913   90.1325   13.1588 C.ar    1  UNL1       -0.0011
     28 H          66.2826   94.3763   14.3335 H       1  UNL1        0.2922
     29 C          60.6715   87.8367   10.8268 C.3     1  UNL1        0.1217
     30 C          61.0693   88.9501    9.9037 C.ar    1  UNL1        0.0135
     31 C          62.1030   89.9482   10.3343 C.ar    1  UNL1       -0.0012
     32 C          62.5009   91.0616    9.4113 C.ar    1  UNL1       -0.0002
     33 C          61.8650   91.1769    8.0577 C.ar    1  UNL1        0.0015
     34 C          60.8314   90.1789    7.6270 C.ar    1  UNL1        0.0170
     35 C          60.0376   90.0382    6.3621 C.ar    1  UNL1        0.0186
     36 C          59.1492   88.8380    6.5034 C.ar    1  UNL1        0.0759
     37 N          59.3939   88.2368    7.8556 N.ar    1  UNL1       -0.3242
     38 C          58.7176   87.0204    8.4151 C.3     1  UNL1        0.1305
     39 C          60.4335   89.0655    8.5501 C.ar    1  UNL1        0.0575
     40 C          60.1181   90.9397    5.1658 C.ar    1  UNL1        0.0015
     41 C          61.4189   91.1047    4.4372 C.ar    1  UNL1        0.0002
     42 C          61.4994   92.0061    3.2411 C.ar    1  UNL1        0.0045
     43 C          60.2792   92.7426    2.7734 C.ar    1  UNL1        0.0537
     44 C          58.9784   92.5776    3.5020 C.ar    1  UNL1        0.0045
     45 C          58.8979   91.6762    4.6982 C.ar    1  UNL1        0.0002
     46 C          60.3597   93.6440    1.5772 C.2     1  UNL1        0.2495
     47 O          59.4530   94.8343    1.4727 O.2     1  UNL1       -0.2698
     48 N          61.3470   93.3552    0.4854 N.am    1  UNL1       -0.2803
     49 H          61.9421   92.5739    0.5540 H       1  UNL1        0.1552
     50 C          61.4275   94.2566   -0.7107 C.ar    1  UNL1        0.0536
     51 C          62.1732   95.5551   -0.6223 C.ar    1  UNL1        0.0149
     52 C          62.2537   96.4567   -1.8185 C.ar    1  UNL1        0.0044
     53 C          61.5886   96.0597   -3.1029 C.ar    1  UNL1        0.0370
     54 C          60.8428   94.7612   -3.1913 C.ar    1  UNL1        0.1403
     55 C          60.7623   93.8597   -1.9952 C.ar    1  UNL1        0.0516
     56 O          60.1776   94.3642   -4.4758 O.3     1  UNL1       -0.4706
     57 C          58.6992   94.5531   -4.6444 C.3     1  UNL1        0.2320
     58 C          57.7407   93.7000   -3.8677 C.ar    1  UNL1        0.0212
     59 C          57.5029   92.2764   -4.2764 C.ar    1  UNL1       -0.0007
     60 C          56.5443   91.4233   -3.4996 C.ar    1  UNL1       -0.0002
     61 C          55.8236   91.9937   -2.3142 C.ar    1  UNL1       -0.0000
     62 C          56.0614   93.4172   -1.9055 C.ar    1  UNL1       -0.0002
     63 C          57.0199   94.2704   -2.6823 C.ar    1  UNL1       -0.0007
     64 C          62.7826   80.6781   10.0869 C.3     1  UNL1        0.1177
     65 C          63.0906   79.2113   10.0272 C.ar    1  UNL1       -0.0025
     66 C          64.0108   78.6807    8.9681 C.ar    1  UNL1       -0.0026
     67 C          64.3188   77.2139    8.9084 C.ar    1  UNL1       -0.0003
     68 C          63.7066   76.2776    9.9076 C.ar    1  UNL1       -0.0000
     69 C          62.7863   76.8082   10.9667 C.ar    1  UNL1       -0.0003
     70 C          62.4783   78.2750   11.0265 C.ar    1  UNL1       -0.0026
@<TRIPOS>BOND
     1    18    19    2
     2    19    17    1
     3    17     1    1
     4     1     2    1
     5     2     3    1
     6     3     4    2
     7     3     5   am
     8     5     6    1
     9     6    20    1
    10    20    21    1
    11    21    22   ar
    12    22    23   ar
    13    23    24   ar
    14    24    25    1
    15    24    26   ar
    16    26    27   ar
    17     6     7    1
    18     7     8    2
    19     7     9   am
    20     9    29    1
    21    29    30    1
    22    30    31   ar
    23    31    32   ar
    24    32    33   ar
    25    33    34   ar
    26    34    35   ar
    27    35    40    1
    28    40    41   ar
    29    41    42   ar
    30    42    43   ar
    31    43    46    1
    32    46    47    2
    33    46    48   am
    34    48    50    1
    35    50    51   ar
    36    51    52   ar
    37    52    53   ar
    38    53    54   ar
    39    54    56    1
    40    56    57    1
    41    57    58    1
    42    58    59   ar
    43    59    60   ar
    44    60    61   ar
    45    61    62   ar
    46    62    63   ar
    47    54    55   ar
    48    43    44   ar
    49    44    45   ar
    50    35    36   ar
    51    36    37   ar
    52    37    38    1
    53    37    39   ar
    54     9    10    1
    55    11    10    1
    56    11    12    1
    57    12    13   am
    58    13    14    2
    59    13    15   am
    60    15    64    1
    61    64    65    1
    62    65    66   ar
    63    66    67   ar
    64    67    68   ar
    65    68    69   ar
    66    69    70   ar
    67    12     1    1
    68    70    65   ar
    69    11     5    1
    70    27    21   ar
    71    39    30   ar
    72    39    34   ar
    73    45    40   ar
    74    55    50   ar
    75    63    58   ar
    76    25    28    1
    77    48    49    1
    78    15    16    1
@<TRIPOS>MOLECULE
*****
 70 78 0 0 0
SMALL
GASTEIGER

@<TRIPOS>ATOM
      1 N          64.5584   83.1629   13.3575 N.3     1  UNL1       -0.1862
      2 C          65.1708   84.0132   14.4308 C.3     1  UNL1        0.1775
      3 C          64.7605   85.4486   14.5760 C.2     1  UNL1        0.2452
      4 O          65.3731   86.2989   15.6493 O.2     1  UNL1       -0.2732
      5 N          63.7377   86.0339   13.6479 N.am    1  UNL1       -0.2541
      6 C          63.3274   87.4693   13.7932 C.3     1  UNL1        0.1577
      7 C          62.3046   88.0546   12.8651 C.2     1  UNL1        0.2445
      8 O          61.8942   89.4900   13.0103 O.2     1  UNL1       -0.2731
      9 N          61.6920   87.2043   11.7918 N.am    1  UNL1       -0.2705
     10 C          62.1024   85.7689   11.6466 C.3     1  UNL1        0.1359
     11 C          63.1252   85.1836   12.5747 C.3     1  UNL1        0.1908
     12 N          63.5356   83.7482   12.4295 N.am    1  UNL1       -0.1863
     13 C          62.9230   82.8980   11.3561 C.2     1  UNL1        0.3191
     14 O          61.9002   83.4832   10.4281 O.2     1  UNL1       -0.2512
     15 N          63.3334   81.4625   11.2109 N.am    1  UNL1       -0.2836
     16 H          64.0047   81.0784   11.8200 H       1  UNL1        0.1513
     17 C          64.9687   81.7275   13.2123 C.3     1  UNL1        0.1188
     18 C          62.7640   80.7823   14.2102 C.2     1  UNL1       -0.0034
     19 C          64.2396   80.6586   13.9711 C.2     1  UNL1       -0.0071
     20 C          63.9398   88.3195   14.8664 C.3     1  UNL1        0.0556
     21 C          64.4590   89.6872   14.5349 C.ar    1  UNL1       -0.0198
     22 C          64.5923   90.1120   13.1025 C.ar    1  UNL1       -0.0011
     23 C          65.1115   91.4797   12.7710 C.ar    1  UNL1        0.0363
     24 C          65.4973   92.4226   13.8719 C.ar    1  UNL1        0.1337
     25 O          66.0165   93.7903   13.5403 O.3     1  UNL1       -0.5055
     26 C          65.3641   91.9979   15.3043 C.ar    1  UNL1        0.0363
     27 C          64.8449   90.6302   15.6359 C.ar    1  UNL1       -0.0011
     28 H          66.0998   94.0556   12.6455 H       1  UNL1        0.2922
     29 C          60.6692   87.7896   10.8637 C.3     1  UNL1        0.1217
     30 C          61.0469   88.9119    9.9430 C.ar    1  UNL1        0.0135
     31 C          62.0749   89.9178   10.3690 C.ar    1  UNL1       -0.0012
     32 C          62.4526   91.0401    9.4483 C.ar    1  UNL1       -0.0002
     33 C          61.8023   91.1566    8.1017 C.ar    1  UNL1        0.0015
     34 C          60.7743   90.1508    7.6757 C.ar    1  UNL1        0.0170
     35 C          59.9695   90.0093    6.4179 C.ar    1  UNL1        0.0186
     36 C          59.0943   88.7995    6.5612 C.ar    1  UNL1        0.0759
     37 N          59.3583   88.1933    7.9075 N.ar    1  UNL1       -0.3242
     38 C          58.6997   86.9673    8.4669 C.3     1  UNL1        0.1305
     39 C          60.3966   89.0285    8.5964 C.ar    1  UNL1        0.0575
     40 C          60.0293   90.9181    5.2259 C.ar    1  UNL1        0.0015
     41 C          58.7889   91.6159    4.7519 C.ar    1  UNL1        0.0002
     42 C          58.8488   92.5246    3.5600 C.ar    1  UNL1        0.0045
     43 C          60.1489   92.7356    2.8422 C.ar    1  UNL1        0.0537
     44 C          61.3892   92.0378    3.3163 C.ar    1  UNL1        0.0045
     45 C          61.3293   91.1291    4.5082 C.ar    1  UNL1        0.0002
     46 C          60.2087   93.6444    1.6504 C.2     1  UNL1        0.2495
     47 O          59.8740   95.0990    1.7989 O.2     1  UNL1       -0.2698
     48 N          60.6030   93.0986    0.3100 N.am    1  UNL1       -0.2803
     49 H          60.8227   92.1439    0.2125 H       1  UNL1        0.1552
     50 C          60.6628   94.0074   -0.8818 C.ar    1  UNL1        0.0536
     51 C          59.4509   94.1908   -1.7466 C.ar    1  UNL1        0.0149
     52 C          59.5106   95.0996   -2.9384 C.ar    1  UNL1        0.0044
     53 C          60.7821   95.8251   -3.2655 C.ar    1  UNL1        0.0370
     54 C          61.9939   95.6418   -2.4007 C.ar    1  UNL1        0.1403
     55 C          61.9343   94.7329   -1.2088 C.ar    1  UNL1        0.0516
     56 O          63.2654   96.3672   -2.7277 O.3     1  UNL1       -0.4706
     57 C          64.5268   95.5949   -2.9771 C.3     1  UNL1        0.2320
     58 C          64.6027   94.6331   -4.1257 C.ar    1  UNL1        0.0212
     59 C          65.1846   95.0741   -5.4360 C.ar    1  UNL1       -0.0007
     60 C          65.2605   94.1123   -6.5845 C.ar    1  UNL1       -0.0002
     61 C          64.7545   92.7095   -6.4228 C.ar    1  UNL1       -0.0000
     62 C          64.1727   92.2685   -5.1124 C.ar    1  UNL1       -0.0002
     63 C          64.0968   93.2303   -3.9639 C.ar    1  UNL1       -0.0007
     64 C          62.7209   80.6123   10.1376 C.3     1  UNL1        0.1177
     65 C          63.0755   79.1581   10.0390 C.ar    1  UNL1       -0.0025
     66 C          62.4963   78.1771   11.0147 C.ar    1  UNL1       -0.0026
     67 C          62.8509   76.7229   10.9161 C.ar    1  UNL1       -0.0003
     68 C          63.7847   76.2498    9.8418 C.ar    1  UNL1       -0.0000
     69 C          64.3640   77.2309    8.8660 C.ar    1  UNL1       -0.0003
     70 C          64.0094   78.6851    8.9646 C.ar    1  UNL1       -0.0026
@<TRIPOS>BOND
     1    18    19    2
     2    19    17    1
     3    17     1    1
     4     1     2    1
     5     2     3    1
     6     3     4    2
     7     3     5   am
     8     5     6    1
     9     6    20    1
    10    20    21    1
    11    21    22   ar
    12    22    23   ar
    13    23    24   ar
    14    24    25    1
    15    24    26   ar
    16    26    27   ar
    17     6     7    1
    18     7     8    2
    19     7     9   am
    20     9    29    1
    21    29    30    1
    22    30    31   ar
    23    31    32   ar
    24    32    33   ar
    25    33    34   ar
    26    34    35   ar
    27    35    40    1
    28    40    41   ar
    29    41    42   ar
    30    42    43   ar
    31    43    46    1
    32    46    47    2
    33    46    48   am
    34    48    50    1
    35    50    51   ar
    36    51    52   ar
    37    52    53   ar
    38    53    54   ar
    39    54    56    1
    40    56    57    1
    41    57    58    1
    42    58    59   ar
    43    59    60   ar
    44    60    61   ar
    45    61    62   ar
    46    62    63   ar
    47    54    55   ar
    48    43    44   ar
    49    44    45   ar
    50    35    36   ar
    51    36    37   ar
    52    37    38    1
    53    37    39   ar
    54     9    10    1
    55    11    10    1
    56    11    12    1
    57    12    13   am
    58    13    14    2
    59    13    15   am
    60    15    64    1
    61    64    65    1
    62    65    66   ar
    63    66    67   ar
    64    67    68   ar
    65    68    69   ar
    66    69    70   ar
    67    12     1    1
    68    70    65   ar
    69    11     5    1
    70    27    21   ar
    71    39    30   ar
    72    39    34   ar
    73    45    40   ar
    74    55    50   ar
    75    63    58   ar
    76    25    28    1
    77    48    49    1
    78    15    16    1
@<TRIPOS>MOLECULE
*****
 70 78 0 0 0
SMALL
GASTEIGER

@<TRIPOS>ATOM
      1 N          64.5489   83.1458   13.3672 N.3     1  UNL1       -0.1862
      2 C          65.1599   83.9931   14.4436 C.3     1  UNL1        0.1775
      3 C          64.7479   85.4277   14.5934 C.2     1  UNL1        0.2452
      4 O          65.3589   86.2750   15.6699 O.2     1  UNL1       -0.2732
      5 N          63.7251   86.0149   13.6666 N.am    1  UNL1       -0.2541
      6 C          63.3132   87.4494   13.8163 C.3     1  UNL1        0.1577
      7 C          62.2903   88.0367   12.8896 C.2     1  UNL1        0.2445
      8 O          61.8784   89.4712   13.0393 O.2     1  UNL1       -0.2731
      9 N          61.6793   87.1893   11.8131 N.am    1  UNL1       -0.2705
     10 C          62.0912   85.7548   11.6634 C.3     1  UNL1        0.1359
     11 C          63.1141   85.1676   12.5902 C.3     1  UNL1        0.1908
     12 N          63.5261   83.7330   12.4405 N.am    1  UNL1       -0.1863
     13 C          62.9151   82.8857   11.3640 C.2     1  UNL1        0.3191
     14 O          61.8922   83.4729   10.4372 O.2     1  UNL1       -0.2512
     15 N          63.3270   81.4512   11.2142 N.am    1  UNL1       -0.2836
     16 H          63.9983   81.0658   11.8225 H       1  UNL1        0.1513
     17 C          64.9608   81.7113   13.2175 C.3     1  UNL1        0.1188
     18 C          62.7598   80.7539   14.2118 C.2     1  UNL1       -0.0034
     19 C          64.2370   80.6398   13.9778 C.2     1  UNL1       -0.0071
     20 C          63.9241   88.2967   14.8928 C.3     1  UNL1        0.0556
     21 C          64.4418   89.6661   14.5661 C.ar    1  UNL1       -0.0198
     22 C          64.7680   90.6277   15.6702 C.ar    1  UNL1       -0.0011
     23 C          65.2858   91.9971   15.3435 C.ar    1  UNL1        0.0363
     24 C          65.4773   92.4049   13.9129 C.ar    1  UNL1        0.1337
     25 O          65.9951   93.7743   13.5862 O.3     1  UNL1       -0.5055
     26 C          65.1511   91.4434   12.8087 C.ar    1  UNL1        0.0363
     27 C          64.6334   90.0740   13.1354 C.ar    1  UNL1       -0.0011
     28 H          66.1988   94.3750   14.2759 H       1  UNL1        0.2922
     29 C          60.6564   87.7766   10.8864 C.3     1  UNL1        0.1217
     30 C          61.0347   88.8992    9.9662 C.ar    1  UNL1        0.0135
     31 C          62.0629   89.9046   10.3930 C.ar    1  UNL1       -0.0012
     32 C          62.4412   91.0273    9.4730 C.ar    1  UNL1       -0.0002
     33 C          61.7914   91.1445    8.1262 C.ar    1  UNL1        0.0015
     34 C          60.7632   90.1391    7.6994 C.ar    1  UNL1        0.0170
     35 C          59.9588   89.9984    6.4412 C.ar    1  UNL1        0.0186
     36 C          59.0833   88.7888    6.5837 C.ar    1  UNL1        0.0759
     37 N          59.3466   88.1819    7.9299 N.ar    1  UNL1       -0.3242
     38 C          58.6875   86.9558    8.4885 C.3     1  UNL1        0.1305
     39 C          60.3849   89.0165    8.6194 C.ar    1  UNL1        0.0575
     40 C          60.0192   90.9077    5.2497 C.ar    1  UNL1        0.0015
     41 C          58.7792   91.6057    4.7753 C.ar    1  UNL1        0.0002
     42 C          58.8397   92.5150    3.5839 C.ar    1  UNL1        0.0045
     43 C          60.1401   92.7262    2.8668 C.ar    1  UNL1        0.0537
     44 C          61.3801   92.0281    3.3412 C.ar    1  UNL1        0.0045
     45 C          61.3196   91.1189    4.5326 C.ar    1  UNL1        0.0002
     46 C          60.2005   93.6354    1.6753 C.2     1  UNL1        0.2495
     47 O          61.1737   94.7766    1.6514 O.2     1  UNL1       -0.2698
     48 N          59.2878   93.4036    0.5078 N.am    1  UNL1       -0.2803
     49 H          58.6491   92.6546    0.5234 H       1  UNL1        0.1552
     50 C          59.3483   94.3129   -0.6836 C.ar    1  UNL1        0.0536
     51 C          58.4463   95.5089   -0.7607 C.ar    1  UNL1        0.0149
     52 C          58.5067   96.4183   -1.9521 C.ar    1  UNL1        0.0044
     53 C          59.4691   96.1316   -3.0664 C.ar    1  UNL1        0.0370
     54 C          60.3710   94.9355   -2.9893 C.ar    1  UNL1        0.1403
     55 C          60.3106   94.0262   -1.7979 C.ar    1  UNL1        0.0516
     56 O          61.3334   94.6488   -4.1036 O.3     1  UNL1       -0.4706
     57 C          62.6714   94.0419   -3.8015 C.3     1  UNL1        0.2320
     58 C          63.6072   94.7253   -2.8490 C.ar    1  UNL1        0.0212
     59 C          63.7742   94.1989   -1.4544 C.ar    1  UNL1       -0.0007
     60 C          64.7100   94.8823   -0.5019 C.ar    1  UNL1       -0.0002
     61 C          65.4788   96.0921   -0.9440 C.ar    1  UNL1       -0.0000
     62 C          65.3118   96.6185   -2.3386 C.ar    1  UNL1       -0.0002
     63 C          64.3760   95.9351   -3.2911 C.ar    1  UNL1       -0.0007
     64 C          62.7161   80.6039   10.1378 C.3     1  UNL1        0.1177
     65 C          63.0822   79.1535   10.0265 C.ar    1  UNL1       -0.0025
     66 C          64.0229   78.6979    8.9507 C.ar    1  UNL1       -0.0026
     67 C          64.3890   77.2475    8.8394 C.ar    1  UNL1       -0.0003
     68 C          63.8145   76.2528    9.8040 C.ar    1  UNL1       -0.0000
     69 C          62.8738   76.7084   10.8799 C.ar    1  UNL1       -0.0003
     70 C          62.5076   78.1588   10.9911 C.ar    1  UNL1       -0.0026
@<TRIPOS>BOND
     1    18    19    2
     2    19    17    1
     3    17     1    1
     4     1     2    1
     5     2     3    1
     6     3     4    2
     7     3     5   am
     8     5     6    1
     9     6    20    1
    10    20    21    1
    11    21    22   ar
    12    22    23   ar
    13    23    24   ar
    14    24    25    1
    15    24    26   ar
    16    26    27   ar
    17     6     7    1
    18     7     8    2
    19     7     9   am
    20     9    29    1
    21    29    30    1
    22    30    31   ar
    23    31    32   ar
    24    32    33   ar
    25    33    34   ar
    26    34    35   ar
    27    35    40    1
    28    40    41   ar
    29    41    42   ar
    30    42    43   ar
    31    43    46    1
    32    46    47    2
    33    46    48   am
    34    48    50    1
    35    50    51   ar
    36    51    52   ar
    37    52    53   ar
    38    53    54   ar
    39    54    56    1
    40    56    57    1
    41    57    58    1
    42    58    59   ar
    43    59    60   ar
    44    60    61   ar
    45    61    62   ar
    46    62    63   ar
    47    54    55   ar
    48    43    44   ar
    49    44    45   ar
    50    35    36   ar
    51    36    37   ar
    52    37    38    1
    53    37    39   ar
    54     9    10    1
    55    11    10    1
    56    11    12    1
    57    12    13   am
    58    13    14    2
    59    13    15   am
    60    15    64    1
    61    64    65    1
    62    65    66   ar
    63    66    67   ar
    64    67    68   ar
    65    68    69   ar
    66    69    70   ar
    67    12     1    1
    68    70    65   ar
    69    11     5    1
    70    27    21   ar
    71    39    30   ar
    72    39    34   ar
    73    45    40   ar
    74    55    50   ar
    75    63    58   ar
    76    25    28    1
    77    48    49    1
    78    15    16    1
