@<TRIPOS>MOLECULE
*****
 34 38 0 0 0
SMALL
GASTEIGER

@<TRIPOS>ATOM
      1 C          62.8479   86.8749   11.9016 C.3     1  UNL1        0.1272
      2 C          63.2387   88.1381   12.6099 C.2     1  UNL1        0.0261
      3 C          63.1105   89.6324   12.5857 C.2     1  UNL1        0.0781
      4 N          63.8711   90.1818   13.7560 N.2     1  UNL1       -0.1568
      5 N          64.4694   89.0271   14.5034 N.2     1  UNL1       -0.1631
      6 C          64.0786   87.7640   13.7951 C.3     1  UNL1        0.2225
      7 C          64.2069   86.2697   13.8193 C.2     1  UNL1        0.2581
      8 O          64.9630   85.4660   14.8353 O.2     1  UNL1       -0.2720
      9 N          63.4462   85.7202   12.6490 N.am    1  UNL1       -0.2508
     10 C          60.5907   87.2779   10.6798 C.ar    1  UNL1        0.1366
     11 C          59.7493   87.1856    9.4414 C.ar    1  UNL1        0.0366
     12 C          60.3237   86.5981    8.1864 C.ar    1  UNL1        0.0031
     13 C          61.7395   86.1029    8.1699 C.ar    1  UNL1       -0.0001
     14 C          62.5809   86.1952    9.4083 C.ar    1  UNL1        0.0007
     15 C          62.0065   86.7827   10.6632 C.ar    1  UNL1        0.0340
     16 C          58.7414   88.6537   11.8786 C.3     1  UNL1        0.2525
     17 O          60.0163   87.8654   11.9347 O.3     1  UNL1       -0.4717
     18 C          63.3082   84.2706   12.2893 C.ar    1  UNL1        0.0544
     19 C          64.0152   83.7264   11.0835 C.ar    1  UNL1        0.0150
     20 C          63.8772   82.2767   10.7237 C.ar    1  UNL1        0.0029
     21 C          63.0322   81.3712   11.5699 C.ar    1  UNL1        0.0210
     22 C          62.3252   81.9154   12.7758 C.ar    1  UNL1        0.0029
     23 C          62.4632   83.3650   13.1354 C.ar    1  UNL1        0.0150
     24 C          62.8941   79.9215   11.2102 C.ar    1  UNL1        0.1231
     25 C          62.9845   79.3433    9.8291 C.ar    1  UNL1        0.0658
     26 C          62.7877   77.8599    9.9339 C.ar    1  UNL1        0.2138
     27 O          62.5757   77.5214   11.3797 O.2     1  UNL1       -0.3502
     28 N          62.6415   78.7955   12.1685 N.ar    1  UNL1       -0.0768
     29 C          62.3544   90.4361   11.5697 C.3     1  UNL1        0.0637
     30 C          61.1822   90.5127   12.5025 C.3     1  UNL1        0.0085
     31 C          63.5265   90.3595   10.6368 C.3     1  UNL1        0.0085
     32 C          61.5982   91.2398   10.5536 C.3     1  UNL1        0.1426
     33 O          60.4895   90.6040    9.7686 O.3     1  UNL1       -0.3816
     34 H          60.8554   89.9157    9.1914 H       1  UNL1        0.2105
@<TRIPOS>BOND
     1    16    17    1
     2    17    10    1
     3    10    11   ar
     4    11    12   ar
     5    12    13   ar
     6    13    14   ar
     7    14    15   ar
     8    15     1    1
     9     1     2    1
    10     2     3    2
    11     3    29    1
    12    29    30    1
    13    29    31    1
    14    29    32    1
    15    32    33    1
    16     3     4    1
    17     4     5    2
    18     5     6    1
    19     6     7    1
    20     7     8    2
    21     7     9   am
    22     9    18    1
    23    18    19   ar
    24    19    20   ar
    25    20    21   ar
    26    21    24    1
    27    24    25   ar
    28    25    26   ar
    29    26    27   ar
    30    27    28   ar
    31    21    22   ar
    32    22    23   ar
    33    15    10   ar
    34     9     1    1
    35    23    18   ar
    36     6     2    1
    37    28    24   ar
    38    33    34    1
@<TRIPOS>MOLECULE
*****
 34 38 0 0 0
SMALL
GASTEIGER

@<TRIPOS>ATOM
      1 C          60.3047   94.6066   -2.1827 C.3     1  UNL1        0.1272
      2 C          61.5511   94.1901   -1.4595 C.2     1  UNL1        0.0261
      3 C          63.0335   94.0103   -1.6009 C.2     1  UNL1        0.0781
      4 N          63.5676   93.5161   -0.2892 N.2     1  UNL1       -0.1568
      5 N          62.4153   93.3905    0.6628 N.2     1  UNL1       -0.1631
      6 C          61.1690   93.8070   -0.0604 C.3     1  UNL1        0.2225
      7 C          59.6865   93.9868    0.0810 C.2     1  UNL1        0.2581
      8 O          58.8799   93.7193    1.3170 O.2     1  UNL1       -0.2720
      9 N          59.1523   94.4810   -1.2307 N.am    1  UNL1       -0.2508
     10 C          59.4342   94.2780   -4.6085 C.ar    1  UNL1        0.1366
     11 C          59.3542   94.7393   -6.0336 C.ar    1  UNL1        0.0366
     12 C          60.0647   95.9903   -6.4581 C.ar    1  UNL1        0.0031
     13 C          60.8552   96.7801   -5.4574 C.ar    1  UNL1       -0.0001
     14 C          60.9352   96.3188   -4.0322 C.ar    1  UNL1        0.0007
     15 C          60.2247   95.0678   -3.6078 C.ar    1  UNL1        0.0340
     16 C          57.4933   92.5784   -4.9155 C.3     1  UNL1        0.2525
     17 O          58.7237   93.0270   -4.1841 O.3     1  UNL1       -0.4717
     18 C          57.7178   94.7945   -1.5366 C.ar    1  UNL1        0.0544
     19 C          56.6920   93.7002   -1.5251 C.ar    1  UNL1        0.0150
     20 C          55.2573   94.0136   -1.8310 C.ar    1  UNL1        0.0029
     21 C          54.8485   95.4215   -2.1485 C.ar    1  UNL1        0.0210
     22 C          55.8744   96.5159   -2.1600 C.ar    1  UNL1        0.0029
     23 C          57.3089   96.2024   -1.8541 C.ar    1  UNL1        0.0150
     24 C          53.4139   95.7350   -2.4544 C.ar    1  UNL1        0.1231
     25 C          52.9219   96.8558   -3.3214 C.ar    1  UNL1        0.0658
     26 C          51.4233   96.7962   -3.3498 C.ar    1  UNL1        0.2138
     27 O          50.9892   95.6387   -2.5004 O.2     1  UNL1       -0.3502
     28 N          52.2194   94.9828   -1.9469 N.ar    1  UNL1       -0.0768
     29 C          63.8402   94.2777   -2.8369 C.3     1  UNL1        0.0637
     30 C          64.2258   95.6220   -2.2944 C.3     1  UNL1        0.0085
     31 C          63.4546   92.9335   -3.3794 C.3     1  UNL1        0.0085
     32 C          64.6468   94.5452   -4.0730 C.3     1  UNL1        0.1426
     33 O          65.0221   93.4135   -4.9831 O.3     1  UNL1       -0.3816
     34 H          65.6280   92.8138   -4.5204 H       1  UNL1        0.2105
@<TRIPOS>BOND
     1    16    17    1
     2    17    10    1
     3    10    11   ar
     4    11    12   ar
     5    12    13   ar
     6    13    14   ar
     7    14    15   ar
     8    15     1    1
     9     1     2    1
    10     2     3    2
    11     3    29    1
    12    29    30    1
    13    29    31    1
    14    29    32    1
    15    32    33    1
    16     3     4    1
    17     4     5    2
    18     5     6    1
    19     6     7    1
    20     7     8    2
    21     7     9   am
    22     9    18    1
    23    18    19   ar
    24    19    20   ar
    25    20    21   ar
    26    21    24    1
    27    24    25   ar
    28    25    26   ar
    29    26    27   ar
    30    27    28   ar
    31    21    22   ar
    32    22    23   ar
    33    15    10   ar
    34     9     1    1
    35    23    18   ar
    36     6     2    1
    37    28    24   ar
    38    33    34    1
@<TRIPOS>MOLECULE
*****
 34 38 0 0 0
SMALL
GASTEIGER

@<TRIPOS>ATOM
      1 C          61.2077   94.0339    0.4390 C.3     1  UNL1        0.1272
      2 C          62.0623   93.4146    1.5049 C.2     1  UNL1        0.0261
      3 C          63.4757   93.2283    1.9712 C.2     1  UNL1        0.0781
      4 N          63.4449   92.4127    3.2296 N.2     1  UNL1       -0.1568
      5 N          62.0125   92.0948    3.5412 N.2     1  UNL1       -0.1631
      6 C          61.1579   92.7141    2.4752 C.3     1  UNL1        0.2225
      7 C          59.7445   92.9004    2.0090 C.2     1  UNL1        0.2581
      8 O          58.5159   92.3650    2.6828 O.2     1  UNL1       -0.2720
      9 N          59.7752   93.7161    0.7504 N.am    1  UNL1       -0.2508
     10 C          61.3589   94.4003   -2.1287 C.ar    1  UNL1        0.1366
     11 C          61.8505   95.1975   -3.3004 C.ar    1  UNL1        0.0366
     12 C          62.6825   96.4253   -3.0762 C.ar    1  UNL1        0.0031
     13 C          63.0229   96.8560   -1.6803 C.ar    1  UNL1       -0.0001
     14 C          62.5313   96.0588   -0.5085 C.ar    1  UNL1        0.0007
     15 C          61.6993   94.8310   -0.7327 C.ar    1  UNL1        0.0340
     16 C          59.4491   93.1771   -3.3962 C.3     1  UNL1        0.2525
     17 O          60.5269   93.1725   -2.3529 O.3     1  UNL1       -0.4717
     18 C          58.5829   94.1396   -0.0551 C.ar    1  UNL1        0.0544
     19 C          58.3796   95.5876   -0.3894 C.ar    1  UNL1        0.0150
     20 C          57.1872   96.0112   -1.1950 C.ar    1  UNL1        0.0029
     21 C          56.1981   94.9867   -1.6661 C.ar    1  UNL1        0.0210
     22 C          56.4014   93.5385   -1.3318 C.ar    1  UNL1        0.0029
     23 C          57.5937   93.1150   -0.5263 C.ar    1  UNL1        0.0150
     24 C          55.0057   95.4102   -2.4717 C.ar    1  UNL1        0.1231
     25 C          53.6913   95.8786   -1.9215 C.ar    1  UNL1        0.0658
     26 C          52.7917   96.1975   -3.0787 C.ar    1  UNL1        0.2138
     27 O          53.5502   95.9261   -4.3440 O.2     1  UNL1       -0.3502
     28 N          54.9185   95.4395   -3.9689 N.ar    1  UNL1       -0.0768
     29 C          64.7043   93.7637    1.2973 C.3     1  UNL1        0.0637
     30 C          64.6235   92.6661    0.2781 C.3     1  UNL1        0.0085
     31 C          64.7850   94.8613    2.3165 C.3     1  UNL1        0.0085
     32 C          65.9328   94.2991    0.6234 C.3     1  UNL1        0.1426
     33 O          65.8027   95.2805   -0.5034 O.3     1  UNL1       -0.3816
     34 H          65.3773   94.8488   -1.2607 H       1  UNL1        0.2105
@<TRIPOS>BOND
     1    16    17    1
     2    17    10    1
     3    10    11   ar
     4    11    12   ar
     5    12    13   ar
     6    13    14   ar
     7    14    15   ar
     8    15     1    1
     9     1     2    1
    10     2     3    2
    11     3    29    1
    12    29    30    1
    13    29    31    1
    14    29    32    1
    15    32    33    1
    16     3     4    1
    17     4     5    2
    18     5     6    1
    19     6     7    1
    20     7     8    2
    21     7     9   am
    22     9    18    1
    23    18    19   ar
    24    19    20   ar
    25    20    21   ar
    26    21    24    1
    27    24    25   ar
    28    25    26   ar
    29    26    27   ar
    30    27    28   ar
    31    21    22   ar
    32    22    23   ar
    33    15    10   ar
    34     9     1    1
    35    23    18   ar
    36     6     2    1
    37    28    24   ar
    38    33    34    1
@<TRIPOS>MOLECULE
*****
 34 38 0 0 0
SMALL
GASTEIGER

@<TRIPOS>ATOM
      1 C          72.0752   73.0425   14.0764 C.3     1  UNL1        0.1272
      2 C          72.0340   72.1222   12.8926 C.2     1  UNL1        0.0261
      3 C          71.7207   70.7223   12.4543 C.2     1  UNL1        0.0781
      4 N          71.9672   70.6330   10.9774 N.2     1  UNL1       -0.1568
      5 N          72.4329   71.9777   10.5030 N.2     1  UNL1       -0.1631
      6 C          72.4741   72.8981   11.6867 C.3     1  UNL1        0.2225
      7 C          72.7874   74.2979   12.1251 C.2     1  UNL1        0.2581
      8 O          73.2636   75.4128   11.2417 O.2     1  UNL1       -0.2720
      9 N          72.5409   74.3873   13.6021 N.am    1  UNL1       -0.2508
     10 C          70.4221   73.1635   16.0771 C.ar    1  UNL1        0.1366
     11 C          70.0612   72.8025   17.4876 C.ar    1  UNL1        0.0366
     12 C          70.9922   71.9597   18.3078 C.ar    1  UNL1        0.0031
     13 C          72.2843   71.4779   17.7176 C.ar    1  UNL1       -0.0001
     14 C          72.6453   71.8388   16.3071 C.ar    1  UNL1        0.0007
     15 C          71.7142   72.6816   15.4868 C.ar    1  UNL1        0.0340
     16 C          69.2416   75.4356   15.6372 C.3     1  UNL1        0.2525
     17 O          69.4911   74.0062   15.2569 O.3     1  UNL1       -0.4717
     18 C          72.7272   75.6070   14.4549 C.ar    1  UNL1        0.0544
     19 C          73.4340   75.4994   15.7735 C.ar    1  UNL1        0.0150
     20 C          73.6204   76.7192   16.6264 C.ar    1  UNL1        0.0029
     21 C          73.1000   78.0467   16.1605 C.ar    1  UNL1        0.0210
     22 C          72.3932   78.1543   14.8418 C.ar    1  UNL1        0.0029
     23 C          72.2069   76.9346   13.9890 C.ar    1  UNL1        0.0150
     24 C          73.2864   79.2665   17.0133 C.ar    1  UNL1        0.1231
     25 C          73.3981   79.2880   18.5090 C.ar    1  UNL1        0.0658
     26 C          73.5745   80.7138   18.9402 C.ar    1  UNL1        0.2138
     27 O          73.5719   81.5735   17.7110 O.2     1  UNL1       -0.3502
     28 N          73.3938   80.6790   16.5201 N.ar    1  UNL1       -0.0768
     29 C          71.2445   69.6075   13.3376 C.3     1  UNL1        0.0637
     30 C          72.6590   69.3342   13.7553 C.3     1  UNL1        0.0085
     31 C          69.8300   69.8807   12.9200 C.3     1  UNL1        0.0085
     32 C          70.7683   68.4926   14.2210 C.3     1  UNL1        0.1426
     33 O          71.6325   68.0060   15.3463 O.3     1  UNL1       -0.3816
     34 H          72.4335   67.5957   14.9847 H       1  UNL1        0.2105
@<TRIPOS>BOND
     1    16    17    1
     2    17    10    1
     3    10    11   ar
     4    11    12   ar
     5    12    13   ar
     6    13    14   ar
     7    14    15   ar
     8    15     1    1
     9     1     2    1
    10     2     3    2
    11     3    29    1
    12    29    30    1
    13    29    31    1
    14    29    32    1
    15    32    33    1
    16     3     4    1
    17     4     5    2
    18     5     6    1
    19     6     7    1
    20     7     8    2
    21     7     9   am
    22     9    18    1
    23    18    19   ar
    24    19    20   ar
    25    20    21   ar
    26    21    24    1
    27    24    25   ar
    28    25    26   ar
    29    26    27   ar
    30    27    28   ar
    31    21    22   ar
    32    22    23   ar
    33    15    10   ar
    34     9     1    1
    35    23    18   ar
    36     6     2    1
    37    28    24   ar
    38    33    34    1
@<TRIPOS>MOLECULE
*****
 34 38 0 0 0
SMALL
GASTEIGER

@<TRIPOS>ATOM
      1 C          60.6288   94.0806   -1.9027 C.3     1  UNL1        0.1272
      2 C          61.4266   94.6175   -0.7515 C.2     1  UNL1        0.0261
      3 C          62.6397   95.4202   -0.3852 C.2     1  UNL1        0.0781
      4 N          62.7173   95.4862    1.1113 N.2     1  UNL1       -0.1568
      5 N          61.5521   94.7244    1.6700 N.2     1  UNL1       -0.1631
      6 C          60.7544   94.1875    0.5187 C.3     1  UNL1        0.2225
      7 C          59.5413   93.3849    0.1525 C.2     1  UNL1        0.2581
      8 O          58.5754   92.7583    1.1140 O.2     1  UNL1       -0.2720
      9 N          59.4637   93.3188   -1.3441 N.am    1  UNL1       -0.2508
     10 C          62.1525   93.6204   -3.9562 C.ar    1  UNL1        0.1366
     11 C          62.4649   93.8118   -5.4109 C.ar    1  UNL1        0.0366
     12 C          61.5663   94.6547   -6.2664 C.ar    1  UNL1        0.0031
     13 C          60.3552   95.3062   -5.6675 C.ar    1  UNL1       -0.0001
     14 C          60.0427   95.1148   -4.2129 C.ar    1  UNL1        0.0007
     15 C          60.9413   94.2720   -3.3573 C.ar    1  UNL1        0.0340
     16 C          64.4805   92.5608   -3.5005 C.3     1  UNL1        0.2525
     17 O          63.0511   92.7776   -3.1006 O.3     1  UNL1       -0.4717
     18 C          58.4066   92.6146   -2.1419 C.ar    1  UNL1        0.0544
     19 C          57.1078   92.2339   -1.4951 C.ar    1  UNL1        0.0150
     20 C          56.0506   91.5296   -2.2928 C.ar    1  UNL1        0.0029
     21 C          56.2922   91.2061   -3.7375 C.ar    1  UNL1        0.0210
     22 C          57.5910   91.5869   -4.3843 C.ar    1  UNL1        0.0029
     23 C          58.6481   92.2911   -3.5866 C.ar    1  UNL1        0.0150
     24 C          55.2350   90.5019   -4.5353 C.ar    1  UNL1        0.1231
     25 C          54.3714   89.3742   -4.0532 C.ar    1  UNL1        0.0658
     26 C          53.4586   88.9771   -5.1753 C.ar    1  UNL1        0.2138
     27 O          53.7580   89.8594   -6.3508 O.2     1  UNL1       -0.3502
     28 N          54.8560   90.8018   -5.9553 N.ar    1  UNL1       -0.0768
     29 C          63.6056   96.0467   -1.3467 C.3     1  UNL1        0.0637
     30 C          64.7214   95.2401   -0.7514 C.3     1  UNL1        0.0085
     31 C          62.4898   96.8534   -1.9420 C.3     1  UNL1        0.0085
     32 C          64.5715   96.6733   -2.3082 C.3     1  UNL1        0.1426
     33 O          66.0468   96.5888   -2.0512 O.3     1  UNL1       -0.3816
     34 H          66.2650   97.0917   -1.2510 H       1  UNL1        0.2105
@<TRIPOS>BOND
     1    16    17    1
     2    17    10    1
     3    10    11   ar
     4    11    12   ar
     5    12    13   ar
     6    13    14   ar
     7    14    15   ar
     8    15     1    1
     9     1     2    1
    10     2     3    2
    11     3    29    1
    12    29    30    1
    13    29    31    1
    14    29    32    1
    15    32    33    1
    16     3     4    1
    17     4     5    2
    18     5     6    1
    19     6     7    1
    20     7     8    2
    21     7     9   am
    22     9    18    1
    23    18    19   ar
    24    19    20   ar
    25    20    21   ar
    26    21    24    1
    27    24    25   ar
    28    25    26   ar
    29    26    27   ar
    30    27    28   ar
    31    21    22   ar
    32    22    23   ar
    33    15    10   ar
    34     9     1    1
    35    23    18   ar
    36     6     2    1
    37    28    24   ar
    38    33    34    1
@<TRIPOS>MOLECULE
*****
 34 38 0 0 0
SMALL
GASTEIGER

@<TRIPOS>ATOM
      1 C          61.4286   93.9222   -0.6700 C.3     1  UNL1        0.1272
      2 C          61.9736   93.5224    0.6691 C.2     1  UNL1        0.0261
      3 C          63.2046   93.5183    1.5262 C.2     1  UNL1        0.0781
      4 N          62.8555   92.8756    2.8358 N.2     1  UNL1       -0.1568
      5 N          61.4087   92.4825    2.7881 N.2     1  UNL1       -0.1631
      6 C          60.8636   92.8823    1.4490 C.3     1  UNL1        0.2225
      7 C          59.6326   92.8864    0.5919 C.2     1  UNL1        0.2581
      8 O          58.2885   92.3432    0.9769 O.2     1  UNL1       -0.2720
      9 N          59.9818   93.5291   -0.7177 N.am    1  UNL1       -0.2508
     10 C          62.6031   96.0332   -1.6261 C.ar    1  UNL1        0.1366
     11 C          63.3702   96.7076   -2.7247 C.ar    1  UNL1        0.0366
     12 C          63.7299   95.9454   -3.9656 C.ar    1  UNL1        0.0031
     13 C          63.3224   94.5088   -4.1079 C.ar    1  UNL1       -0.0001
     14 C          62.5553   93.8344   -3.0093 C.ar    1  UNL1        0.0007
     15 C          62.1957   94.5966   -1.7685 C.ar    1  UNL1        0.0340
     16 C          60.8156   96.8560    0.0703 C.3     1  UNL1        0.2525
     17 O          62.2435   96.7953   -0.3853 O.3     1  UNL1       -0.4717
     18 C          59.0481   93.7414   -1.8723 C.ar    1  UNL1        0.0544
     19 C          58.8336   92.6463   -2.8746 C.ar    1  UNL1        0.0150
     20 C          57.8998   92.8586   -4.0292 C.ar    1  UNL1        0.0029
     21 C          57.1807   94.1661   -4.1815 C.ar    1  UNL1        0.0210
     22 C          57.3952   95.2613   -3.1792 C.ar    1  UNL1        0.0029
     23 C          58.3289   95.0490   -2.0246 C.ar    1  UNL1        0.0150
     24 C          56.2470   94.3784   -5.3361 C.ar    1  UNL1        0.1231
     25 C          56.2382   93.5993   -6.6178 C.ar    1  UNL1        0.0658
     26 C          55.1439   94.1466   -7.4855 C.ar    1  UNL1        0.2138
     27 O          54.4763   95.2640   -6.7400 O.2     1  UNL1       -0.3502
     28 N          55.1580   95.4073   -5.4116 N.ar    1  UNL1       -0.0768
     29 C          64.5488   94.0615    1.1413 C.3     1  UNL1        0.0637
     30 C          64.8257   92.8166    0.3516 C.3     1  UNL1        0.0085
     31 C          64.2719   95.3063    1.9310 C.3     1  UNL1        0.0085
     32 C          65.8930   94.6047    0.7564 C.3     1  UNL1        0.1426
     33 O          65.9907   95.7576   -0.1981 O.3     1  UNL1       -0.3816
     34 H          65.6707   95.4824   -1.0715 H       1  UNL1        0.2105
@<TRIPOS>BOND
     1    16    17    1
     2    17    10    1
     3    10    11   ar
     4    11    12   ar
     5    12    13   ar
     6    13    14   ar
     7    14    15   ar
     8    15     1    1
     9     1     2    1
    10     2     3    2
    11     3    29    1
    12    29    30    1
    13    29    31    1
    14    29    32    1
    15    32    33    1
    16     3     4    1
    17     4     5    2
    18     5     6    1
    19     6     7    1
    20     7     8    2
    21     7     9   am
    22     9    18    1
    23    18    19   ar
    24    19    20   ar
    25    20    21   ar
    26    21    24    1
    27    24    25   ar
    28    25    26   ar
    29    26    27   ar
    30    27    28   ar
    31    21    22   ar
    32    22    23   ar
    33    15    10   ar
    34     9     1    1
    35    23    18   ar
    36     6     2    1
    37    28    24   ar
    38    33    34    1
@<TRIPOS>MOLECULE
*****
 34 38 0 0 0
SMALL
GASTEIGER

@<TRIPOS>ATOM
      1 C          64.7679   91.4634   13.6686 C.3     1  UNL1        0.1272
      2 C          65.1212   91.8617   15.0710 C.2     1  UNL1        0.0261
      3 C          66.0703   92.6770   15.8983 C.2     1  UNL1        0.0781
      4 N          65.6928   92.5061   17.3400 N.2     1  UNL1       -0.1568
      5 N          64.5104   91.5853   17.4036 N.2     1  UNL1       -0.1631
      6 C          64.1571   91.1870   16.0012 C.3     1  UNL1        0.2225
      7 C          63.2081   90.3717   15.1738 C.2     1  UNL1        0.2581
      8 O          62.0796   89.5329   15.6963 O.2     1  UNL1       -0.2720
      9 N          63.5855   90.5425   13.7321 N.am    1  UNL1       -0.2508
     10 C          66.9628   91.7698   12.3127 C.ar    1  UNL1        0.1366
     11 C          67.6681   92.2143   11.0656 C.ar    1  UNL1        0.0366
     12 C          66.8837   92.7970    9.9275 C.ar    1  UNL1        0.0031
     13 C          65.3940   92.9351   10.0365 C.ar    1  UNL1       -0.0001
     14 C          64.6888   92.4905   11.2835 C.ar    1  UNL1        0.0007
     15 C          65.4732   91.9079   12.4216 C.ar    1  UNL1        0.0340
     16 C          69.2349   91.3711   13.5081 C.3     1  UNL1        0.2525
     17 O          67.7473   91.1872   13.4507 O.3     1  UNL1       -0.4717
     18 C          62.9009   89.9046   12.5599 C.ar    1  UNL1        0.0544
     19 C          62.0052   90.7230   11.6779 C.ar    1  UNL1        0.0150
     20 C          61.3205   90.0851   10.5057 C.ar    1  UNL1        0.0029
     21 C          61.5315   88.6286   10.2154 C.ar    1  UNL1        0.0210
     22 C          62.4272   87.8101   11.0975 C.ar    1  UNL1        0.0029
     23 C          63.1118   88.4481   12.2696 C.ar    1  UNL1        0.0150
     24 C          60.8468   87.9906    9.0432 C.ar    1  UNL1        0.1231
     25 C          60.9657   86.5543    8.6272 C.ar    1  UNL1        0.0658
     26 C          60.1154   86.3530    7.4080 C.ar    1  UNL1        0.2138
     27 O          59.4709   87.6647    7.0705 O.2     1  UNL1       -0.3502
     28 N          59.9229   88.6769    8.0811 N.ar    1  UNL1       -0.0768
     29 C          67.1987   93.5158   15.3758 C.3     1  UNL1        0.0637
     30 C          68.1201   92.9096   16.3925 C.3     1  UNL1        0.0085
     31 C          66.2774   94.1220   14.3591 C.3     1  UNL1        0.0085
     32 C          68.3272   94.3546   14.8533 C.3     1  UNL1        0.1426
     33 O          69.6807   94.2745   15.4948 O.3     1  UNL1       -0.3816
     34 H          69.6299   94.6170   16.4009 H       1  UNL1        0.2105
@<TRIPOS>BOND
     1    16    17    1
     2    17    10    1
     3    10    11   ar
     4    11    12   ar
     5    12    13   ar
     6    13    14   ar
     7    14    15   ar
     8    15     1    1
     9     1     2    1
    10     2     3    2
    11     3    29    1
    12    29    30    1
    13    29    31    1
    14    29    32    1
    15    32    33    1
    16     3     4    1
    17     4     5    2
    18     5     6    1
    19     6     7    1
    20     7     8    2
    21     7     9   am
    22     9    18    1
    23    18    19   ar
    24    19    20   ar
    25    20    21   ar
    26    21    24    1
    27    24    25   ar
    28    25    26   ar
    29    26    27   ar
    30    27    28   ar
    31    21    22   ar
    32    22    23   ar
    33    15    10   ar
    34     9     1    1
    35    23    18   ar
    36     6     2    1
    37    28    24   ar
    38    33    34    1
@<TRIPOS>MOLECULE
*****
 34 38 0 0 0
SMALL
GASTEIGER

@<TRIPOS>ATOM
      1 C          62.5702   86.9058   11.7257 C.3     1  UNL1        0.1272
      2 C          62.9654   88.1927   12.3873 C.2     1  UNL1        0.0261
      3 C          62.7701   89.6797   12.3629 C.2     1  UNL1        0.0781
      4 N          63.6048   90.2748   13.4579 N.2     1  UNL1       -0.1568
      5 N          64.3159   89.1556   14.1591 N.2     1  UNL1       -0.1631
      6 C          63.9207   87.8687   13.4975 C.3     1  UNL1        0.2225
      7 C          64.1160   86.3817   13.5219 C.2     1  UNL1        0.2581
      8 O          64.9921   85.6230   14.4742 O.2     1  UNL1       -0.2720
      9 N          63.2813   85.7865   12.4269 N.am    1  UNL1       -0.2508
     10 C          62.1049   86.1431    9.2860 C.ar    1  UNL1        0.1366
     11 C          61.1637   86.0004    8.1267 C.ar    1  UNL1        0.0366
     12 C          59.7469   86.4779    8.2477 C.ar    1  UNL1        0.0031
     13 C          59.2712   87.0980    9.5280 C.ar    1  UNL1       -0.0001
     14 C          60.2123   87.2406   10.6873 C.ar    1  UNL1        0.0007
     15 C          61.6291   86.7632   10.5664 C.ar    1  UNL1        0.0340
     16 C          63.9439   84.8656    7.9685 C.3     1  UNL1        0.2525
     17 O          63.5217   85.6656    9.1650 O.3     1  UNL1       -0.4717
     18 C          63.1762   84.3283   12.0919 C.ar    1  UNL1        0.0544
     19 C          62.2239   83.4514   12.8497 C.ar    1  UNL1        0.0150
     20 C          62.1187   81.9930   12.5147 C.ar    1  UNL1        0.0029
     21 C          62.9659   81.4116   11.4219 C.ar    1  UNL1        0.0210
     22 C          63.9182   82.2885   10.6640 C.ar    1  UNL1        0.0029
     23 C          64.0233   83.7467   10.9990 C.ar    1  UNL1        0.0150
     24 C          62.8608   79.9532   11.0869 C.ar    1  UNL1        0.1231
     25 C          62.9899   79.3513    9.7190 C.ar    1  UNL1        0.0658
     26 C          62.8170   77.8669    9.8477 C.ar    1  UNL1        0.2138
     27 O          62.5810   77.5514   11.2950 O.2     1  UNL1       -0.3502
     28 N          62.6080   78.8408   12.0609 N.ar    1  UNL1       -0.0768
     29 C          61.8940   90.4384   11.4106 C.3     1  UNL1        0.0637
     30 C          63.0978   90.8018   10.5927 C.3     1  UNL1        0.0085
     31 C          60.6903   90.0749   12.2285 C.3     1  UNL1        0.0085
     32 C          61.0179   91.1971   10.4583 C.3     1  UNL1        0.1426
     33 O          59.9015   90.4945    9.7443 O.3     1  UNL1       -0.3816
     34 H          60.2709   89.8359    9.1355 H       1  UNL1        0.2105
@<TRIPOS>BOND
     1    16    17    1
     2    17    10    1
     3    10    11   ar
     4    11    12   ar
     5    12    13   ar
     6    13    14   ar
     7    14    15   ar
     8    15     1    1
     9     1     2    1
    10     2     3    2
    11     3    29    1
    12    29    30    1
    13    29    31    1
    14    29    32    1
    15    32    33    1
    16     3     4    1
    17     4     5    2
    18     5     6    1
    19     6     7    1
    20     7     8    2
    21     7     9   am
    22     9    18    1
    23    18    19   ar
    24    19    20   ar
    25    20    21   ar
    26    21    24    1
    27    24    25   ar
    28    25    26   ar
    29    26    27   ar
    30    27    28   ar
    31    21    22   ar
    32    22    23   ar
    33    15    10   ar
    34     9     1    1
    35    23    18   ar
    36     6     2    1
    37    28    24   ar
    38    33    34    1
@<TRIPOS>MOLECULE
*****
 34 38 0 0 0
SMALL
GASTEIGER

@<TRIPOS>ATOM
      1 C          63.1181   87.8208   12.4609 C.3     1  UNL1        0.1272
      2 C          63.7402   89.1362   12.8252 C.2     1  UNL1        0.0261
      3 C          63.9251   90.5563   12.3788 C.2     1  UNL1        0.0781
      4 N          64.7469   91.2645   13.4147 N.2     1  UNL1       -0.1568
      5 N          65.0700   90.2821   14.5013 N.2     1  UNL1       -0.1631
      6 C          64.4478   88.9668   14.1370 C.3     1  UNL1        0.2225
      7 C          64.2630   87.5467   14.5833 C.2     1  UNL1        0.2581
      8 O          64.8049   86.9412   15.8442 O.2     1  UNL1       -0.2720
      9 N          63.4411   86.8384   13.5475 N.am    1  UNL1       -0.2508
     10 C          60.8667   87.9274   11.1686 C.ar    1  UNL1        0.1366
     11 C          60.0627   87.6440    9.9343 C.ar    1  UNL1        0.0366
     12 C          60.7059   86.9709    8.7583 C.ar    1  UNL1        0.0031
     13 C          62.1532   86.5810    8.8164 C.ar    1  UNL1       -0.0001
     14 C          62.9573   86.8644   10.0507 C.ar    1  UNL1        0.0007
     15 C          62.3140   87.5375   11.2267 C.ar    1  UNL1        0.0340
     16 C          58.7807   89.0059   12.2801 C.3     1  UNL1        0.2525
     17 O          60.2235   88.6005   12.3446 O.3     1  UNL1       -0.4717
     18 C          63.0169   85.4004   13.5906 C.ar    1  UNL1        0.0544
     19 C          62.5616   84.7912   14.8835 C.ar    1  UNL1        0.0150
     20 C          62.1373   83.3530   14.9267 C.ar    1  UNL1        0.0029
     21 C          62.1684   82.5241   13.6769 C.ar    1  UNL1        0.0210
     22 C          62.6237   83.1334   12.3839 C.ar    1  UNL1        0.0029
     23 C          63.0479   84.5714   12.3408 C.ar    1  UNL1        0.0150
     24 C          61.7441   81.0860   13.7200 C.ar    1  UNL1        0.1231
     25 C          62.5639   79.9112   13.2752 C.ar    1  UNL1        0.0658
     26 C          61.7520   78.6694   13.4958 C.ar    1  UNL1        0.2138
     27 O          60.4304   79.0767   14.0769 O.2     1  UNL1       -0.3502
     28 N          60.4256   80.5703   14.2154 N.ar    1  UNL1       -0.0768
     29 C          63.3832   91.1618   11.1180 C.3     1  UNL1        0.0637
     30 C          64.7752   91.5272   10.6953 C.3     1  UNL1        0.0085
     31 C          61.9912   90.7963   11.5407 C.3     1  UNL1        0.0085
     32 C          62.8414   91.7673    9.8571 C.3     1  UNL1        0.1426
     33 O          62.1145   90.9087    8.8649 O.3     1  UNL1       -0.3816
     34 H          62.7301   90.2634    8.4835 H       1  UNL1        0.2105
@<TRIPOS>BOND
     1    16    17    1
     2    17    10    1
     3    10    11   ar
     4    11    12   ar
     5    12    13   ar
     6    13    14   ar
     7    14    15   ar
     8    15     1    1
     9     1     2    1
    10     2     3    2
    11     3    29    1
    12    29    30    1
    13    29    31    1
    14    29    32    1
    15    32    33    1
    16     3     4    1
    17     4     5    2
    18     5     6    1
    19     6     7    1
    20     7     8    2
    21     7     9   am
    22     9    18    1
    23    18    19   ar
    24    19    20   ar
    25    20    21   ar
    26    21    24    1
    27    24    25   ar
    28    25    26   ar
    29    26    27   ar
    30    27    28   ar
    31    21    22   ar
    32    22    23   ar
    33    15    10   ar
    34     9     1    1
    35    23    18   ar
    36     6     2    1
    37    28    24   ar
    38    33    34    1
