@<TRIPOS>MOLECULE
*****
 34 37 0 0 0
SMALL
GASTEIGER

@<TRIPOS>ATOM
      1 C          61.2973   88.4745   10.1101 C.ar    1  UNL1        0.0951
      2 C          60.3770   88.4169    8.9270 C.ar    1  UNL1        0.1454
      3 F          59.4254   89.5456    8.6615 F       1  UNL1       -0.2040
      4 C          60.4083   87.2307    8.0095 C.ar    1  UNL1        0.0312
      5 C          61.3599   86.1020    8.2750 C.ar    1  UNL1        0.0204
      6 C          62.2803   86.1597    9.4582 C.ar    1  UNL1        0.0924
      7 C          62.2489   87.3459   10.3757 C.ar    1  UNL1        0.1598
      8 F          63.1692   87.4034   11.5588 F       1  UNL1       -0.2026
      9 C          61.2659   89.6607   11.0277 C.2     1  UNL1        0.2036
     10 O          59.9974   90.0239   11.7410 O.2     1  UNL1       -0.2863
     11 C          63.7975   90.6565   15.0670 C.2     1  UNL1        0.1673
     12 C          64.9861   91.5339   14.8076 C.2     1  UNL1        0.2683
     13 N          65.2813   92.0043   13.4142 N.2     1  UNL1       -0.0278
     14 C          64.3878   91.5974   12.2802 C.2     1  UNL1        0.3723
     15 N          64.4265   91.9034   10.8123 N.2     1  UNL1       -0.0307
     16 C          63.2618   91.2151   10.1644 C.2     1  UNL1        0.2390
     17 C          62.5032   90.4838   11.2319 C.2     1  UNL1        0.0897
     18 C          63.1991   90.7201   12.5396 C.2     1  UNL1        0.0806
     19 C          62.9040   90.2496   13.9330 C.3     1  UNL1        0.1023
     20 C          63.1217   88.7559   16.7043 C.3     1  UNL1        0.2522
     21 O          63.5023   90.1861   16.4604 O.2     1  UNL1       -0.4715
     22 N          63.2319   85.0310    9.7237 N.pl3   1  UNL1       -0.2127
     23 H          63.9957   84.8792    9.1214 H       1  UNL1        0.1738
     24 S          63.0197   84.1337   10.9068 S.O2    1  UNL1        0.0759
     25 O          64.3615   83.5060   10.6715 O.2     1  UNL1       -0.1499
     26 O          61.6778   84.7613   11.1422 O.2     1  UNL1       -0.1499
     27 C          62.8074   83.2363   12.0900 C.ar    1  UNL1        0.1547
     28 C          62.6012   81.7644   11.8874 C.ar    1  UNL1        0.0521
     29 C          62.3890   80.8671   13.0705 C.ar    1  UNL1        0.1416
     30 F          62.1828   79.3952   12.8680 F       1  UNL1       -0.2041
     31 C          62.3829   81.4416   14.4561 C.ar    1  UNL1        0.0320
     32 C          62.5891   82.9135   14.6586 C.ar    1  UNL1        0.0333
     33 C          62.8014   83.8108   13.4756 C.ar    1  UNL1        0.1590
     34 F          63.0076   85.2827   13.6780 F       1  UNL1       -0.2027
@<TRIPOS>BOND
     1    20    21    1
     2    21    11    1
     3    11    12    2
     4    12    13    1
     5    13    14    2
     6    14    15    1
     7    15    16    2
     8    16    17    1
     9    17     9    1
    10     9    10    2
    11     9     1    1
    12     1     2   ar
    13     2     3    1
    14     2     4   ar
    15     4     5   ar
    16     5     6   ar
    17     6    22    1
    18    22    24    1
    19    24    25    2
    20    24    26    2
    21    24    27    1
    22    27    28   ar
    23    28    29   ar
    24    29    30    1
    25    29    31   ar
    26    31    32   ar
    27    32    33   ar
    28    33    34    1
    29     6     7   ar
    30     7     8    1
    31    17    18    2
    32    18    19    1
    33    19    11    1
    34    18    14    1
    35     7     1   ar
    36    33    27   ar
    37    22    23    1
@<TRIPOS>MOLECULE
*****
 34 37 0 0 0
SMALL
GASTEIGER

@<TRIPOS>ATOM
      1 C          61.8663   89.1351   11.5418 C.ar    1  UNL1        0.0951
      2 C          60.5439   89.5342   10.9569 C.ar    1  UNL1        0.1454
      3 F          59.9381   90.8606   11.3087 F       1  UNL1       -0.2040
      4 C          59.8275   88.6071   10.0205 C.ar    1  UNL1        0.0312
      5 C          60.4333   87.2807    9.6687 C.ar    1  UNL1        0.0204
      6 C          61.7558   86.8816   10.2536 C.ar    1  UNL1        0.0924
      7 C          62.4722   87.8087   11.1901 C.ar    1  UNL1        0.1598
      8 F          63.7946   87.4095   11.7749 F       1  UNL1       -0.2026
      9 C          62.5828   90.0622   12.4783 C.2     1  UNL1        0.2036
     10 O          62.3292   89.9806   13.9544 O.2     1  UNL1       -0.2863
     11 C          66.2899   92.3800   14.6234 C.2     1  UNL1        0.1673
     12 C          67.0052   93.3172   13.6962 C.2     1  UNL1        0.2683
     13 N          66.5508   93.4569   12.2735 N.2     1  UNL1       -0.0278
     14 C          65.3811   92.6593   11.7780 C.2     1  UNL1        0.3723
     15 N          64.7103   92.5876   10.4383 N.2     1  UNL1       -0.0307
     16 C          63.5804   91.6060   10.5375 C.2     1  UNL1        0.2390
     17 C          63.5528   91.0710   11.9386 C.2     1  UNL1        0.0897
     18 C          64.6658   91.7220   12.7053 C.2     1  UNL1        0.0806
     19 C          65.1202   91.5823   14.1279 C.3     1  UNL1        0.1023
     20 C          68.2072   92.2873   16.3742 C.3     1  UNL1        0.2522
     21 O          66.7443   92.2403   16.0461 O.2     1  UNL1       -0.4715
     22 N          62.3616   85.5552    9.9019 N.pl3   1  UNL1       -0.2127
     23 H          62.5722   85.3435    8.9638 H       1  UNL1        0.1738
     24 S          62.6467   84.5514   10.9795 S.O2    1  UNL1        0.0759
     25 O          61.6113   85.1953   11.8531 O.2     1  UNL1       -0.1499
     26 O          63.6821   83.9075   10.1058 O.2     1  UNL1       -0.1499
     27 C          62.9317   83.5476   12.0571 C.ar    1  UNL1        0.1547
     28 C          62.5359   82.1130   11.8693 C.ar    1  UNL1        0.0521
     29 C          62.8209   81.1092   12.9469 C.ar    1  UNL1        0.1416
     30 F          62.4251   79.6746   12.7591 F       1  UNL1       -0.2041
     31 C          63.5018   81.5400   14.2121 C.ar    1  UNL1        0.0320
     32 C          63.8977   82.9745   14.3999 C.ar    1  UNL1        0.0333
     33 C          63.6126   83.9784   13.3223 C.ar    1  UNL1        0.1590
     34 F          64.0084   85.4130   13.5100 F       1  UNL1       -0.2027
@<TRIPOS>BOND
     1    20    21    1
     2    21    11    1
     3    11    12    2
     4    12    13    1
     5    13    14    2
     6    14    15    1
     7    15    16    2
     8    16    17    1
     9    17     9    1
    10     9    10    2
    11     9     1    1
    12     1     2   ar
    13     2     3    1
    14     2     4   ar
    15     4     5   ar
    16     5     6   ar
    17     6    22    1
    18    22    24    1
    19    24    25    2
    20    24    26    2
    21    24    27    1
    22    27    28   ar
    23    28    29   ar
    24    29    30    1
    25    29    31   ar
    26    31    32   ar
    27    32    33   ar
    28    33    34    1
    29     6     7   ar
    30     7     8    1
    31    17    18    2
    32    18    19    1
    33    19    11    1
    34    18    14    1
    35     7     1   ar
    36    33    27   ar
    37    22    23    1
@<TRIPOS>MOLECULE
*****
 34 37 0 0 0
SMALL
GASTEIGER

@<TRIPOS>ATOM
      1 C          64.0586   84.5569   13.9136 C.ar    1  UNL1        0.0951
      2 C          63.8722   83.1209   14.3050 C.ar    1  UNL1        0.1454
      3 F          64.4433   82.6154   15.5966 F       1  UNL1       -0.2040
      4 C          63.1146   82.1904   13.4048 C.ar    1  UNL1        0.0312
      5 C          62.5435   82.6959   12.1132 C.ar    1  UNL1        0.0204
      6 C          62.7300   84.1320   11.7218 C.ar    1  UNL1        0.0924
      7 C          63.4875   85.0624   12.6220 C.ar    1  UNL1        0.1598
      8 F          63.6739   86.4984   12.2305 F       1  UNL1       -0.2026
      9 C          64.8162   85.4873   14.8138 C.2     1  UNL1        0.2036
     10 O          66.3139   85.4247   14.8680 O.2     1  UNL1       -0.2863
     11 C          64.4853   90.3346   14.4802 C.2     1  UNL1        0.1673
     12 C          63.6253   90.9346   15.5527 C.2     1  UNL1        0.2683
     13 N          62.9774   90.0505   16.5767 N.2     1  UNL1       -0.0278
     14 C          63.1895   88.5664   16.5282 C.2     1  UNL1        0.3723
     15 N          62.6844   87.4514   17.3952 N.2     1  UNL1       -0.0307
     16 C          63.2323   86.1623   16.8585 C.2     1  UNL1        0.2390
     17 C          64.0760   86.4805   15.6598 C.2     1  UNL1        0.0897
     18 C          64.0495   87.9664   15.4557 C.2     1  UNL1        0.0806
     19 C          64.6974   88.8505   14.4317 C.3     1  UNL1        0.1023
     20 C          66.4248   91.9123   13.7736 C.3     1  UNL1        0.2522
     21 O          65.1332   91.2187   13.4562 O.2     1  UNL1       -0.4715
     22 N          62.1589   84.6374   10.4302 N.pl3   1  UNL1       -0.2127
     23 H          62.0038   84.0149    9.6834 H       1  UNL1        0.1738
     24 S          61.8240   86.0914   10.2763 S.O2    1  UNL1        0.0759
     25 O          61.0297   86.0431   11.5477 O.2     1  UNL1       -0.1499
     26 O          62.6183   86.1398    9.0048 O.2     1  UNL1       -0.1499
     27 C          61.4891   87.5455   10.1223 C.ar    1  UNL1        0.1547
     28 C          62.3585   88.5871   10.7620 C.ar    1  UNL1        0.0521
     29 C          62.0237   90.0411   10.6080 C.ar    1  UNL1        0.1416
     30 F          62.8932   91.0827   11.2477 F       1  UNL1       -0.2041
     31 C          60.8195   90.4536    9.8145 C.ar    1  UNL1        0.0320
     32 C          59.9501   89.4120    9.1748 C.ar    1  UNL1        0.0333
     33 C          60.2849   87.9580    9.3287 C.ar    1  UNL1        0.1590
     34 F          59.4155   86.9163    8.6891 F       1  UNL1       -0.2027
@<TRIPOS>BOND
     1    20    21    1
     2    21    11    1
     3    11    12    2
     4    12    13    1
     5    13    14    2
     6    14    15    1
     7    15    16    2
     8    16    17    1
     9    17     9    1
    10     9    10    2
    11     9     1    1
    12     1     2   ar
    13     2     3    1
    14     2     4   ar
    15     4     5   ar
    16     5     6   ar
    17     6    22    1
    18    22    24    1
    19    24    25    2
    20    24    26    2
    21    24    27    1
    22    27    28   ar
    23    28    29   ar
    24    29    30    1
    25    29    31   ar
    26    31    32   ar
    27    32    33   ar
    28    33    34    1
    29     6     7   ar
    30     7     8    1
    31    17    18    2
    32    18    19    1
    33    19    11    1
    34    18    14    1
    35     7     1   ar
    36    33    27   ar
    37    22    23    1
@<TRIPOS>MOLECULE
*****
 34 37 0 0 0
SMALL
GASTEIGER

@<TRIPOS>ATOM
      1 C          64.0370   88.4913   15.5277 C.ar    1  UNL1        0.0951
      2 C          63.1956   88.9125   16.6959 C.ar    1  UNL1        0.1454
      3 F          62.9724   90.3698   16.9726 F       1  UNL1       -0.2040
      4 C          62.5774   87.8766   17.5873 C.ar    1  UNL1        0.0312
      5 C          62.8005   86.4193   17.3105 C.ar    1  UNL1        0.0204
      6 C          63.6420   85.9980   16.1423 C.ar    1  UNL1        0.0924
      7 C          64.2602   87.0340   15.2509 C.ar    1  UNL1        0.1598
      8 F          65.1016   86.6126   14.0828 F       1  UNL1       -0.2026
      9 C          64.6552   89.5272   14.6363 C.2     1  UNL1        0.2036
     10 O          65.9024   90.2402   15.0679 O.2     1  UNL1       -0.2863
     11 C          65.5681   93.1095   11.4661 C.2     1  UNL1        0.1673
     12 C          64.6872   93.0521   10.2534 C.2     1  UNL1        0.2683
     13 N          63.6613   91.9657   10.1223 N.2     1  UNL1       -0.0278
     14 C          63.5162   90.9366   11.2039 C.2     1  UNL1        0.3723
     15 N          62.6011   89.7573   11.3511 N.2     1  UNL1       -0.0307
     16 C          62.9164   89.0858   12.6548 C.2     1  UNL1        0.2390
     17 C          64.0264   89.8501   13.3134 C.2     1  UNL1        0.0897
     18 C          64.3971   90.9940   12.4166 C.2     1  UNL1        0.0806
     19 C          65.4230   92.0804   12.5477 C.3     1  UNL1        0.1023
     20 C          66.8507   95.1275   10.4500 C.3     1  UNL1        0.2522
     21 O          66.5940   94.1959   11.5972 O.2     1  UNL1       -0.4715
     22 N          63.8651   84.5408   15.8656 N.pl3   1  UNL1       -0.2127
     23 H          64.1166   83.9334   16.5985 H       1  UNL1        0.1738
     24 S          63.7051   84.0088   14.4723 S.O2    1  UNL1        0.0759
     25 O          62.2521   84.3805   14.4972 O.2     1  UNL1       -0.1499
     26 O          65.1580   83.6371   14.4473 O.2     1  UNL1       -0.1499
     27 C          63.5450   83.4768   13.0789 C.ar    1  UNL1        0.1547
     28 C          63.5858   84.4146   11.9089 C.ar    1  UNL1        0.0521
     29 C          63.4258   83.8827   10.5155 C.ar    1  UNL1        0.1416
     30 F          63.4665   84.8205    9.3455 F       1  UNL1       -0.2041
     31 C          63.2251   82.4131   10.2922 C.ar    1  UNL1        0.0320
     32 C          63.1843   81.4753   11.4622 C.ar    1  UNL1        0.0333
     33 C          63.3443   82.0072   12.8555 C.ar    1  UNL1        0.1590
     34 F          63.3036   81.0695   14.0256 F       1  UNL1       -0.2027
@<TRIPOS>BOND
     1    20    21    1
     2    21    11    1
     3    11    12    2
     4    12    13    1
     5    13    14    2
     6    14    15    1
     7    15    16    2
     8    16    17    1
     9    17     9    1
    10     9    10    2
    11     9     1    1
    12     1     2   ar
    13     2     3    1
    14     2     4   ar
    15     4     5   ar
    16     5     6   ar
    17     6    22    1
    18    22    24    1
    19    24    25    2
    20    24    26    2
    21    24    27    1
    22    27    28   ar
    23    28    29   ar
    24    29    30    1
    25    29    31   ar
    26    31    32   ar
    27    32    33   ar
    28    33    34    1
    29     6     7   ar
    30     7     8    1
    31    17    18    2
    32    18    19    1
    33    19    11    1
    34    18    14    1
    35     7     1   ar
    36    33    27   ar
    37    22    23    1
@<TRIPOS>MOLECULE
*****
 34 37 0 0 0
SMALL
GASTEIGER

@<TRIPOS>ATOM
      1 C          63.7370   88.4428   15.2808 C.ar    1  UNL1        0.0951
      2 C          63.0396   88.8250   16.5525 C.ar    1  UNL1        0.1454
      3 F          62.6392   90.2512   16.7888 F       1  UNL1       -0.2040
      4 C          62.7424   87.7812   17.5879 C.ar    1  UNL1        0.0312
      5 C          63.1428   86.3551   17.3516 C.ar    1  UNL1        0.0204
      6 C          63.8403   85.9728   16.0798 C.ar    1  UNL1        0.0924
      7 C          64.1374   87.0167   15.0444 C.ar    1  UNL1        0.1598
      8 F          64.8349   86.6343   13.7726 F       1  UNL1       -0.2026
      9 C          64.0341   89.4866   14.2453 C.2     1  UNL1        0.2036
     10 O          63.6686   89.2454   12.8107 O.2     1  UNL1       -0.2863
     11 C          65.8592   93.1025   11.5414 C.2     1  UNL1        0.1673
     12 C          66.4368   94.2130   12.3678 C.2     1  UNL1        0.2683
     13 N          66.4080   94.1268   13.8651 N.2     1  UNL1       -0.0278
     14 C          65.8017   92.9300   14.5359 C.2     1  UNL1        0.3723
     15 N          65.6313   92.5687   15.9817 N.2     1  UNL1       -0.0307
     16 C          64.9485   91.2348   16.0489 C.2     1  UNL1        0.2390
     17 C          64.6968   90.7718   14.6445 C.2     1  UNL1        0.0897
     18 C          65.2241   91.8195   13.7095 C.2     1  UNL1        0.0806
     19 C          65.2529   91.9057   12.2122 C.3     1  UNL1        0.1023
     20 C          66.9815   93.9522    9.3578 C.3     1  UNL1        0.2522
     21 O          65.8880   93.1887   10.0441 O.2     1  UNL1       -0.4715
     22 N          64.2407   84.5467   15.8435 N.pl3   1  UNL1       -0.2127
     23 H          64.6760   84.0322   16.5612 H       1  UNL1        0.1738
     24 S          63.9778   83.9044   14.5137 S.O2    1  UNL1        0.0759
     25 O          65.4531   83.8502   14.2482 O.2     1  UNL1       -0.1499
     26 O          62.5025   83.9586   14.7792 O.2     1  UNL1       -0.1499
     27 C          63.7149   83.2621   13.1839 C.ar    1  UNL1        0.1547
     28 C          63.8457   84.0655   11.9240 C.ar    1  UNL1        0.0521
     29 C          63.5828   83.4233   10.5942 C.ar    1  UNL1        0.1416
     30 F          63.7137   84.2268    9.3343 F       1  UNL1       -0.2041
     31 C          63.1891   81.9776   10.5243 C.ar    1  UNL1        0.0320
     32 C          63.0582   81.1741   11.7842 C.ar    1  UNL1        0.0333
     33 C          63.3212   81.8163   13.1140 C.ar    1  UNL1        0.1590
     34 F          63.1903   81.0130   14.3739 F       1  UNL1       -0.2027
@<TRIPOS>BOND
     1    20    21    1
     2    21    11    1
     3    11    12    2
     4    12    13    1
     5    13    14    2
     6    14    15    1
     7    15    16    2
     8    16    17    1
     9    17     9    1
    10     9    10    2
    11     9     1    1
    12     1     2   ar
    13     2     3    1
    14     2     4   ar
    15     4     5   ar
    16     5     6   ar
    17     6    22    1
    18    22    24    1
    19    24    25    2
    20    24    26    2
    21    24    27    1
    22    27    28   ar
    23    28    29   ar
    24    29    30    1
    25    29    31   ar
    26    31    32   ar
    27    32    33   ar
    28    33    34    1
    29     6     7   ar
    30     7     8    1
    31    17    18    2
    32    18    19    1
    33    19    11    1
    34    18    14    1
    35     7     1   ar
    36    33    27   ar
    37    22    23    1
@<TRIPOS>MOLECULE
*****
 34 37 0 0 0
SMALL
GASTEIGER

@<TRIPOS>ATOM
      1 C          61.9917   86.4110   10.5606 C.ar    1  UNL1        0.0951
      2 C          61.0028   86.4537    9.4335 C.ar    1  UNL1        0.1454
      3 F          60.8115   85.2511    8.5577 F       1  UNL1       -0.2040
      4 C          60.2053   87.6990    9.1823 C.ar    1  UNL1        0.0312
      5 C          60.3966   88.9017   10.0582 C.ar    1  UNL1        0.0204
      6 C          61.3856   88.8589   11.1853 C.ar    1  UNL1        0.0924
      7 C          62.1831   87.6136   11.4365 C.ar    1  UNL1        0.1598
      8 F          63.1720   87.5709   12.5636 F       1  UNL1       -0.2026
      9 C          62.7893   85.1657   10.8118 C.2     1  UNL1        0.2036
     10 O          63.6306   84.5802    9.7166 O.2     1  UNL1       -0.2863
     11 C          62.7278   80.4560   12.0496 C.2     1  UNL1        0.1673
     12 C          62.6822   80.2448   13.5339 C.2     1  UNL1        0.2683
     13 N          62.6605   81.4252   14.4592 N.2     1  UNL1       -0.0278
     14 C          62.6845   82.8169   13.9001 C.2     1  UNL1        0.3723
     15 N          62.6716   84.1639   14.5599 N.2     1  UNL1       -0.0307
     16 C          62.7093   85.2078   13.4833 C.2     1  UNL1        0.2390
     17 C          62.7455   84.5058   12.1581 C.2     1  UNL1        0.0897
     18 C          62.7301   83.0282   12.4158 C.2     1  UNL1        0.0806
     19 C          62.7518   81.8477   11.4905 C.3     1  UNL1        0.1023
     20 C          62.8155   79.4867    9.6407 C.3     1  UNL1        0.2522
     21 O          62.7495   79.2756   11.1243 O.2     1  UNL1       -0.4715
     22 N          61.5769   90.0615   12.0611 N.pl3   1  UNL1       -0.2127
     23 H          60.8017   90.4759   12.5044 H       1  UNL1        0.1738
     24 S          62.9493   90.6326   12.2616 S.O2    1  UNL1        0.0759
     25 O          63.0958   90.8015   10.7785 O.2     1  UNL1       -0.1499
     26 O          62.8029   90.4638   13.7449 O.2     1  UNL1       -0.1499
     27 C          64.3218   91.2037   12.4622 C.ar    1  UNL1        0.1547
     28 C          65.0957   90.8772   13.7049 C.ar    1  UNL1        0.0521
     29 C          66.4682   91.4483   13.9055 C.ar    1  UNL1        0.1416
     30 F          67.2421   91.1217   15.1483 F       1  UNL1       -0.2041
     31 C          67.0667   92.3459   12.8634 C.ar    1  UNL1        0.0320
     32 C          66.2928   92.6725   11.6207 C.ar    1  UNL1        0.0333
     33 C          64.9204   92.1014   11.4201 C.ar    1  UNL1        0.1590
     34 F          64.1464   92.4279   10.1774 F       1  UNL1       -0.2027
@<TRIPOS>BOND
     1    20    21    1
     2    21    11    1
     3    11    12    2
     4    12    13    1
     5    13    14    2
     6    14    15    1
     7    15    16    2
     8    16    17    1
     9    17     9    1
    10     9    10    2
    11     9     1    1
    12     1     2   ar
    13     2     3    1
    14     2     4   ar
    15     4     5   ar
    16     5     6   ar
    17     6    22    1
    18    22    24    1
    19    24    25    2
    20    24    26    2
    21    24    27    1
    22    27    28   ar
    23    28    29   ar
    24    29    30    1
    25    29    31   ar
    26    31    32   ar
    27    32    33   ar
    28    33    34    1
    29     6     7   ar
    30     7     8    1
    31    17    18    2
    32    18    19    1
    33    19    11    1
    34    18    14    1
    35     7     1   ar
    36    33    27   ar
    37    22    23    1
@<TRIPOS>MOLECULE
*****
 34 37 0 0 0
SMALL
GASTEIGER

@<TRIPOS>ATOM
      1 C          62.0036   86.3218   10.3221 C.ar    1  UNL1        0.0951
      2 C          61.0844   86.3371    9.1369 C.ar    1  UNL1        0.1454
      3 F          60.9880   85.1334    8.2471 F       1  UNL1       -0.2040
      4 C          60.2616   87.5560    8.8415 C.ar    1  UNL1        0.0312
      5 C          60.3580   88.7597    9.7313 C.ar    1  UNL1        0.0204
      6 C          61.2772   88.7444   10.9166 C.ar    1  UNL1        0.0924
      7 C          62.1000   87.5255   11.2121 C.ar    1  UNL1        0.1598
      8 F          63.0192   87.5103   12.3973 F       1  UNL1       -0.2026
      9 C          62.8263   85.1029   10.6176 C.2     1  UNL1        0.2036
     10 O          63.6890   84.5028    9.5472 O.2     1  UNL1       -0.2863
     11 C          62.7437   80.4331   11.9967 C.2     1  UNL1        0.1673
     12 C          62.7055   80.2667   13.4870 C.2     1  UNL1        0.2683
     13 N          62.6965   81.4745   14.3764 N.2     1  UNL1       -0.0278
     14 C          62.7256   82.8486   13.7757 C.2     1  UNL1        0.3723
     15 N          62.7248   84.2149   14.3947 N.2     1  UNL1       -0.0307
     16 C          62.7624   85.2257   13.2870 C.2     1  UNL1        0.2390
     17 C          62.7865   84.4841   11.9834 C.2     1  UNL1        0.0897
     18 C          62.7637   83.0149   12.2855 C.2     1  UNL1        0.0806
     19 C          62.7728   81.8071   11.3960 C.3     1  UNL1        0.1023
     20 C          62.8194   79.3911    9.6180 C.3     1  UNL1        0.2522
     21 O          62.7527   79.2253   11.1073 O.2     1  UNL1       -0.4715
     22 N          61.3736   89.9481   11.8065 N.pl3   1  UNL1       -0.2127
     23 H          60.5556   90.4141   12.0945 H       1  UNL1        0.1738
     24 S          62.7163   90.4418   12.2575 S.O2    1  UNL1        0.0759
     25 O          63.0912   90.7241   10.8329 O.2     1  UNL1       -0.1499
     26 O          62.3415   90.1594   13.6822 O.2     1  UNL1       -0.1499
     27 C          64.0591   90.9354   12.7087 C.ar    1  UNL1        0.1547
     28 C          64.7538   92.0231   11.9442 C.ar    1  UNL1        0.0521
     29 C          66.0965   92.5168   12.3952 C.ar    1  UNL1        0.1416
     30 F          66.7912   93.6044   11.6308 F       1  UNL1       -0.2041
     31 C          66.7444   91.9229   13.6108 C.ar    1  UNL1        0.0320
     32 C          66.0497   90.8352   14.3752 C.ar    1  UNL1        0.0333
     33 C          64.7070   90.3415   13.9242 C.ar    1  UNL1        0.1590
     34 F          64.0122   89.2539   14.6885 F       1  UNL1       -0.2027
@<TRIPOS>BOND
     1    20    21    1
     2    21    11    1
     3    11    12    2
     4    12    13    1
     5    13    14    2
     6    14    15    1
     7    15    16    2
     8    16    17    1
     9    17     9    1
    10     9    10    2
    11     9     1    1
    12     1     2   ar
    13     2     3    1
    14     2     4   ar
    15     4     5   ar
    16     5     6   ar
    17     6    22    1
    18    22    24    1
    19    24    25    2
    20    24    26    2
    21    24    27    1
    22    27    28   ar
    23    28    29   ar
    24    29    30    1
    25    29    31   ar
    26    31    32   ar
    27    32    33   ar
    28    33    34    1
    29     6     7   ar
    30     7     8    1
    31    17    18    2
    32    18    19    1
    33    19    11    1
    34    18    14    1
    35     7     1   ar
    36    33    27   ar
    37    22    23    1
@<TRIPOS>MOLECULE
*****
 34 37 0 0 0
SMALL
GASTEIGER

@<TRIPOS>ATOM
      1 C          63.9664   86.1565   15.3607 C.ar    1  UNL1        0.0951
      2 C          63.1311   85.5655   16.4575 C.ar    1  UNL1        0.1454
      3 F          62.9964   84.0764   16.5782 F       1  UNL1       -0.2040
      4 C          62.4306   86.4635   17.4336 C.ar    1  UNL1        0.0312
      5 C          62.5653   87.9526   17.3130 C.ar    1  UNL1        0.0204
      6 C          63.4007   88.5435   16.2161 C.ar    1  UNL1        0.0924
      7 C          64.1013   87.6455   15.2400 C.ar    1  UNL1        0.1598
      8 F          64.9366   88.2366   14.1432 F       1  UNL1       -0.2026
      9 C          64.6670   85.2584   14.3846 C.2     1  UNL1        0.2036
     10 O          66.1279   84.9628   14.5526 O.2     1  UNL1       -0.2863
     11 C          61.8566   87.3276   10.9881 C.2     1  UNL1        0.1673
     12 C          61.2839   86.3336   10.0217 C.2     1  UNL1        0.2683
     13 N          61.6020   84.8752   10.1692 N.2     1  UNL1       -0.0278
     14 C          62.4929   84.4107   11.2830 C.2     1  UNL1        0.3723
     15 N          62.9799   83.0478   11.6769 N.2     1  UNL1       -0.0307
     16 C          63.8536   83.1994   12.8867 C.2     1  UNL1        0.2390
     17 C          63.9066   84.6561   13.2405 C.2     1  UNL1        0.0897
     18 C          63.0656   85.4047   12.2493 C.2     1  UNL1        0.0806
     19 C          62.7475   86.8632   12.1019 C.3     1  UNL1        0.1023
     20 C          60.2753   89.3413   11.4290 C.3     1  UNL1        0.2522
     21 O          61.5384   88.7860   10.8407 O.2     1  UNL1       -0.4715
     22 N          63.5355   90.0326   16.0954 N.pl3   1  UNL1       -0.2127
     23 H          63.3808   90.6061   16.8806 H       1  UNL1        0.1738
     24 S          63.9059   90.6479   14.7786 S.O2    1  UNL1        0.0759
     25 O          62.5923   90.2082   14.2035 O.2     1  UNL1       -0.1499
     26 O          65.2197   91.0876   15.3536 O.2     1  UNL1       -0.1499
     27 C          64.2765   91.2632   13.4617 C.ar    1  UNL1        0.1547
     28 C          63.5102   90.9030   12.2235 C.ar    1  UNL1        0.0521
     29 C          63.8807   91.5183   10.9066 C.ar    1  UNL1        0.1416
     30 F          63.1144   91.1580    9.6685 F       1  UNL1       -0.2041
     31 C          65.0174   92.4938   10.8279 C.ar    1  UNL1        0.0320
     32 C          65.7837   92.8540   12.0661 C.ar    1  UNL1        0.0333
     33 C          65.4132   92.2388   13.3829 C.ar    1  UNL1        0.1590
     34 F          66.1794   92.5989   14.6211 F       1  UNL1       -0.2027
@<TRIPOS>BOND
     1    20    21    1
     2    21    11    1
     3    11    12    2
     4    12    13    1
     5    13    14    2
     6    14    15    1
     7    15    16    2
     8    16    17    1
     9    17     9    1
    10     9    10    2
    11     9     1    1
    12     1     2   ar
    13     2     3    1
    14     2     4   ar
    15     4     5   ar
    16     5     6   ar
    17     6    22    1
    18    22    24    1
    19    24    25    2
    20    24    26    2
    21    24    27    1
    22    27    28   ar
    23    28    29   ar
    24    29    30    1
    25    29    31   ar
    26    31    32   ar
    27    32    33   ar
    28    33    34    1
    29     6     7   ar
    30     7     8    1
    31    17    18    2
    32    18    19    1
    33    19    11    1
    34    18    14    1
    35     7     1   ar
    36    33    27   ar
    37    22    23    1
@<TRIPOS>MOLECULE
*****
 34 37 0 0 0
SMALL
GASTEIGER

@<TRIPOS>ATOM
      1 C          63.8920   87.3911   15.0146 C.ar    1  UNL1        0.0951
      2 C          63.5271   87.9959   16.3378 C.ar    1  UNL1        0.1454
      3 F          63.8214   87.2544   17.6080 F       1  UNL1       -0.2040
      4 C          62.8679   89.3423   16.3909 C.ar    1  UNL1        0.0312
      5 C          62.5736   90.0839   15.1207 C.ar    1  UNL1        0.0204
      6 C          62.9385   89.4790   13.7974 C.ar    1  UNL1        0.0924
      7 C          63.5977   88.1326   13.7443 C.ar    1  UNL1        0.1598
      8 F          63.9625   87.5279   12.4210 F       1  UNL1       -0.2026
      9 C          64.5512   86.0448   14.9615 C.2     1  UNL1        0.2036
     10 O          66.0474   85.9407   14.9872 O.2     1  UNL1       -0.2863
     11 C          63.4737   83.1650   11.1850 C.2     1  UNL1        0.1673
     12 C          62.5897   82.0141   11.5641 C.2     1  UNL1        0.2683
     13 N          62.1372   81.8523   12.9850 N.2     1  UNL1       -0.0278
     14 C          62.5686   82.8415   14.0268 C.2     1  UNL1        0.3723
     15 N          62.2838   82.9402   15.4962 N.2     1  UNL1       -0.0307
     16 C          62.9919   84.1522   16.0252 C.2     1  UNL1        0.2390
     17 C          63.7142   84.8025   14.8828 C.2     1  UNL1        0.0897
     18 C          63.4526   83.9924   13.6476 C.2     1  UNL1        0.0806
     19 C          63.9051   84.1542   12.2267 C.3     1  UNL1        0.1023
     20 C          63.4422   84.4904    8.9506 C.3     1  UNL1        0.2522
     21 O          63.9263   83.3268    9.7640 O.2     1  UNL1       -0.4715
     22 N          62.6441   90.2206   12.5272 N.pl3   1  UNL1       -0.2127
     23 H          62.9328   91.1562   12.4253 H       1  UNL1        0.1738
     24 S          61.9099   89.5365   11.4123 S.O2    1  UNL1        0.0759
     25 O          63.0965   89.7259   10.5146 O.2     1  UNL1       -0.1499
     26 O          60.7232   89.3471   12.3100 O.2     1  UNL1       -0.1499
     27 C          61.1756   88.8525   10.2973 C.ar    1  UNL1        0.1547
     28 C          60.5991   89.6601    9.1725 C.ar    1  UNL1        0.0521
     29 C          59.8649   88.9762    8.0576 C.ar    1  UNL1        0.1416
     30 F          59.2884   89.7838    6.9328 F       1  UNL1       -0.2041
     31 C          59.7071   87.4845    8.0676 C.ar    1  UNL1        0.0320
     32 C          60.2836   86.6768    9.1924 C.ar    1  UNL1        0.0333
     33 C          61.0179   87.3608   10.3073 C.ar    1  UNL1        0.1590
     34 F          61.5944   86.5532   11.4322 F       1  UNL1       -0.2027
@<TRIPOS>BOND
     1    20    21    1
     2    21    11    1
     3    11    12    2
     4    12    13    1
     5    13    14    2
     6    14    15    1
     7    15    16    2
     8    16    17    1
     9    17     9    1
    10     9    10    2
    11     9     1    1
    12     1     2   ar
    13     2     3    1
    14     2     4   ar
    15     4     5   ar
    16     5     6   ar
    17     6    22    1
    18    22    24    1
    19    24    25    2
    20    24    26    2
    21    24    27    1
    22    27    28   ar
    23    28    29   ar
    24    29    30    1
    25    29    31   ar
    26    31    32   ar
    27    32    33   ar
    28    33    34    1
    29     6     7   ar
    30     7     8    1
    31    17    18    2
    32    18    19    1
    33    19    11    1
    34    18    14    1
    35     7     1   ar
    36    33    27   ar
    37    22    23    1
