@<TRIPOS>MOLECULE
*****
 38 43 0 0 0
SMALL
GASTEIGER

@<TRIPOS>ATOM
      1 N          62.8177   83.7107   11.5921 N.ar    1  UNL1       -0.3126
      2 C          62.5572   82.2428   11.4263 C.ar    1  UNL1        0.1784
      3 N          62.5646   81.6140   12.7881 N.ar    1  UNL1       -0.2223
      4 C          62.8297   82.6933   13.7956 C.ar    1  UNL1        0.1179
      5 C          62.9489   82.6635   15.2905 C.ar    1  UNL1        0.1194
      6 N          63.2245   83.9296   16.0463 N.ar    1  UNL1       -0.2421
      7 C          63.3810   85.2254   15.3071 C.ar    1  UNL1        0.0850
      8 C          63.6566   86.4914   16.0628 C.ar    1  UNL1        0.0488
      9 C          63.8130   87.7872   15.3236 C.ar    1  UNL1        0.1416
     10 F          64.0886   89.0533   16.0794 F       1  UNL1       -0.2041
     11 C          63.6938   87.8170   13.8287 C.ar    1  UNL1        0.0284
     12 C          63.4182   86.5509   13.0729 C.ar    1  UNL1        0.0052
     13 C          63.2618   85.2551   13.8121 C.ar    1  UNL1        0.0352
     14 C          62.9862   83.9891   13.0564 C.ar    1  UNL1        0.0818
     15 C          64.1154   83.9052   10.1790 C.3     1  UNL1        0.0227
     16 C          62.8961   84.7225   10.4875 C.3     1  UNL1        0.0699
     17 C          61.6495   85.1884   11.1797 C.3     1  UNL1        0.0208
     18 C          60.9047   86.3823   10.6601 C.3     1  UNL1        0.0029
     19 C          61.4065   87.1103    9.4484 C.3     1  UNL1        0.0153
     20 C          62.6531   86.6444    8.7562 C.3     1  UNL1        0.0029
     21 C          63.3978   85.4506    9.2758 C.3     1  UNL1        0.0208
     22 C          60.6617   88.3041    8.9289 C.3     1  UNL1        0.1054
     23 C          60.1742   89.3565    9.8803 C.1     1  UNL1        0.0731
     24 N          59.6867   90.4087   10.8316 N.1     1  UNL1       -0.1959
     25 C          63.8502   89.1128   13.0895 C.ar    1  UNL1        0.0129
     26 C          63.0733   89.3560   11.8296 C.ar    1  UNL1        0.0040
     27 C          63.2298   90.6518   11.0904 C.ar    1  UNL1        0.0377
     28 C          64.1630   91.7044   11.6111 C.ar    1  UNL1        0.1495
     29 C          64.9398   91.4612   12.8710 C.ar    1  UNL1        0.0490
     30 C          64.7834   90.1654   13.6102 C.ar    1  UNL1        0.0608
     31 CL         65.5602   89.9221   14.8701 Cl      1  UNL1       -0.0821
     32 O          64.3195   93.0002   10.8719 O.3     1  UNL1       -0.4223
     33 C          65.6601   93.3962   10.3277 C.ar    1  UNL1        0.3246
     34 N          66.6937   92.3470   10.0434 N.ar    1  UNL1       -0.1924
     35 C          68.0343   92.7430    9.4992 C.ar    1  UNL1        0.1053
     36 C          68.3412   94.1881    9.2394 C.ar    1  UNL1        0.0416
     37 C          67.3075   95.2372    9.5238 C.ar    1  UNL1        0.1053
     38 N          65.9670   94.8413   10.0680 N.ar    1  UNL1       -0.1924
@<TRIPOS>BOND
     1    15    16    1
     2    16     1    1
     3     1     2   ar
     4     2     3   ar
     5     3     4   ar
     6     4     5   ar
     7     5     6   ar
     8     6     7   ar
     9     7     8   ar
    10     8     9   ar
    11     9    10    1
    12     9    11   ar
    13    11    25    1
    14    25    26   ar
    15    26    27   ar
    16    27    28   ar
    17    28    32    1
    18    32    33    1
    19    33    34   ar
    20    34    35   ar
    21    35    36   ar
    22    36    37   ar
    23    37    38   ar
    24    28    29   ar
    25    29    30   ar
    26    30    31    1
    27    11    12   ar
    28    12    13   ar
    29    13    14   ar
    30    16    17    1
    31    17    18    1
    32    18    19    1
    33    19    22    1
    34    22    23    1
    35    23    24    3
    36    19    20    1
    37    20    21    1
    38    21    16    1
    39    14     1   ar
    40    14     4   ar
    41    13     7   ar
    42    30    25   ar
    43    38    33   ar
@<TRIPOS>MOLECULE
*****
 38 43 0 0 0
SMALL
GASTEIGER

@<TRIPOS>ATOM
      1 N          61.9883   89.2408   10.6684 N.ar    1  UNL1       -0.3126
      2 C          61.7357   90.5684   10.0175 C.ar    1  UNL1        0.1784
      3 N          62.4450   91.6197   10.8184 N.ar    1  UNL1       -0.2223
      4 C          63.1360   90.9419   11.9643 C.ar    1  UNL1        0.1179
      5 C          63.9858   91.4735   13.0802 C.ar    1  UNL1        0.1194
      6 N          64.5533   90.5348   14.1034 N.ar    1  UNL1       -0.2421
      7 C          64.2711   89.0646   14.0107 C.ar    1  UNL1        0.0850
      8 C          64.8386   88.1259   15.0338 C.ar    1  UNL1        0.0488
      9 C          64.5563   86.6556   14.9410 C.ar    1  UNL1        0.1416
     10 F          65.1238   85.7170   15.9641 F       1  UNL1       -0.2041
     11 C          63.7065   86.1240   13.8251 C.ar    1  UNL1        0.0284
     12 C          63.1390   87.0627   12.8019 C.ar    1  UNL1        0.0052
     13 C          63.4212   88.5329   12.8947 C.ar    1  UNL1        0.0352
     14 C          62.8537   89.4716   11.8716 C.ar    1  UNL1        0.0818
     15 C          60.3262   88.3493   11.0704 C.3     1  UNL1        0.0227
     16 C          61.4670   87.9151   10.1985 C.3     1  UNL1        0.0699
     17 C          62.7888   87.9412    9.4899 C.3     1  UNL1        0.0208
     18 C          63.1931   86.7924    8.6141 C.3     1  UNL1        0.0029
     19 C          62.2757   85.6175    8.4471 C.3     1  UNL1        0.0153
     20 C          60.9538   85.5914    9.1558 C.3     1  UNL1        0.0029
     21 C          60.5496   86.7402   10.0314 C.3     1  UNL1        0.0208
     22 C          62.6800   84.4689    7.5714 C.3     1  UNL1        0.1054
     23 C          62.0613   84.3060    6.2146 C.1     1  UNL1        0.0731
     24 N          61.4427   84.1430    4.8579 N.1     1  UNL1       -0.1959
     25 C          63.4243   84.6537   13.7324 C.ar    1  UNL1        0.0129
     26 C          64.1011   83.8249   12.6811 C.ar    1  UNL1        0.0040
     27 C          63.8188   82.3547   12.5883 C.ar    1  UNL1        0.0377
     28 C          62.8597   81.7132   13.5469 C.ar    1  UNL1        0.1495
     29 C          62.1830   82.5419   14.5981 C.ar    1  UNL1        0.0490
     30 C          62.4653   84.0122   14.6908 C.ar    1  UNL1        0.0608
     31 CL         61.7885   84.8410   15.7421 Cl      1  UNL1       -0.0821
     32 O          62.5775   80.2429   13.4541 O.3     1  UNL1       -0.4223
     33 C          62.6856   79.5403   12.1332 C.ar    1  UNL1        0.3246
     34 N          62.8392   80.3359   10.8709 N.ar    1  UNL1       -0.1924
     35 C          62.9474   79.6333    9.5500 C.ar    1  UNL1        0.1053
     36 C          62.9019   78.1351    9.4914 C.ar    1  UNL1        0.0416
     37 C          62.7483   77.3395   10.7538 C.ar    1  UNL1        0.1053
     38 N          62.6401   78.0421   12.0746 N.ar    1  UNL1       -0.1924
@<TRIPOS>BOND
     1    15    16    1
     2    16     1    1
     3     1     2   ar
     4     2     3   ar
     5     3     4   ar
     6     4     5   ar
     7     5     6   ar
     8     6     7   ar
     9     7     8   ar
    10     8     9   ar
    11     9    10    1
    12     9    11   ar
    13    11    25    1
    14    25    26   ar
    15    26    27   ar
    16    27    28   ar
    17    28    32    1
    18    32    33    1
    19    33    34   ar
    20    34    35   ar
    21    35    36   ar
    22    36    37   ar
    23    37    38   ar
    24    28    29   ar
    25    29    30   ar
    26    30    31    1
    27    11    12   ar
    28    12    13   ar
    29    13    14   ar
    30    16    17    1
    31    17    18    1
    32    18    19    1
    33    19    22    1
    34    22    23    1
    35    23    24    3
    36    19    20    1
    37    20    21    1
    38    21    16    1
    39    14     1   ar
    40    14     4   ar
    41    13     7   ar
    42    30    25   ar
    43    38    33   ar
