@<TRIPOS>MOLECULE
*****
 55 60 0 0 0
SMALL
GASTEIGER

@<TRIPOS>ATOM
      1 C          62.5785   85.3734    9.2332 C.3     1  UNL1        0.1269
      2 O          62.6440   84.8968    7.8125 O.3     1  UNL1       -0.3830
      3 H          61.8083   85.1005    7.3642 H       1  UNL1        0.2104
      4 C          63.7529   85.1764   10.1453 C.3     1  UNL1        0.0401
      5 C          63.6188   84.3138   11.3651 C.3     1  UNL1        0.0833
      6 O          61.6714   85.2157   12.8293 O.2     1  UNL1       -0.2751
      7 C          63.1285   84.9067   12.6528 C.2     1  UNL1        0.2226
      8 N          64.0954   85.1906   13.7639 N.am    1  UNL1       -0.2999
      9 H          65.0518   84.9878   13.6480 H       1  UNL1        0.1498
     10 C          63.6051   85.7834   15.0516 C.3     1  UNL1        0.1278
     11 C          63.6920   87.2639   15.2767 C.ar    1  UNL1        0.0320
     12 C          64.2692   88.1515   14.2142 C.ar    1  UNL1        0.0004
     13 C          64.3561   89.6319   14.4394 C.ar    1  UNL1       -0.0001
     14 C          63.8659   90.2248   15.7270 C.ar    1  UNL1        0.0031
     15 C          63.2887   89.3372   16.7895 C.ar    1  UNL1        0.0366
     16 C          63.2018   87.8567   16.5644 C.ar    1  UNL1        0.1362
     17 O          62.6246   86.9691   17.6270 O.3     1  UNL1       -0.4730
     18 C          62.5377   85.4886   17.4018 C.3     1  UNL1        0.2364
     19 C          63.0280   84.8958   16.1141 C.3     1  UNL1        0.1762
     20 O          62.9410   83.4154   15.8889 O.3     1  UNL1       -0.3788
     21 H          62.5465   82.9925   16.6677 H       1  UNL1        0.2106
     22 C          63.9751   82.8583   11.2972 C.3     1  UNL1        0.0371
     23 C          63.4520   81.9090   12.3341 C.ar    1  UNL1       -0.0025
     24 C          62.0097   81.4977   12.3148 C.ar    1  UNL1       -0.0011
     25 C          61.4866   80.5483   13.3518 C.ar    1  UNL1        0.0204
     26 C          62.4059   80.0104   14.4080 C.ar    1  UNL1        0.0989
     27 N          63.8483   80.4218   14.4272 N.ar    1  UNL1       -0.2426
     28 C          64.3713   81.3711   13.3903 C.ar    1  UNL1        0.0946
     29 C          61.3384   86.0469    9.7419 C.3     1  UNL1        0.1021
     30 N          60.6453   87.0769    8.9000 N.3     1  UNL1       -0.2621
     31 C          59.7288   86.6475    7.7929 C.3     1  UNL1        0.0901
     32 C          59.0356   87.6775    6.9511 C.3     1  UNL1        0.0900
     33 N          59.2591   89.1369    7.2163 N.3     1  UNL1       -0.2635
     34 C          60.1756   89.5662    8.3234 C.3     1  UNL1        0.0980
     35 C          60.8687   88.5363    9.1652 C.3     1  UNL1        0.1510
     36 C          61.7852   88.9656   10.2723 C.2     1  UNL1        0.2386
     37 O          61.8538   88.1682   11.5409 O.2     1  UNL1       -0.2736
     38 N          62.6331   90.1925   10.1108 N.am    1  UNL1       -0.2961
     39 H          62.5880   90.7158    9.2781 H       1  UNL1        0.1497
     40 C          63.5496   90.6218   11.2178 C.3     1  UNL1        0.1939
     41 C          64.3349   91.8935   11.0907 C.3     1  UNL1        0.4154
     42 F          65.1202   93.1652   10.9636 F       1  UNL1       -0.1682
     43 F          63.5732   92.2395    9.8457 F       1  UNL1       -0.1682
     44 F          65.0966   91.5476   12.3357 F       1  UNL1       -0.1682
     45 C          58.5659   90.1668    6.3744 C.3     1  UNL1        0.1377
     46 C          59.3331   90.9208    5.3289 C.ar    1  UNL1        0.1390
     47 C          58.8125   92.0597    4.5032 C.ar    1  UNL1        0.0374
     48 C          59.9132   92.5109    3.5895 C.ar    1  UNL1        0.0381
     49 C          59.9772   93.5939    2.5536 C.ar    1  UNL1        0.0032
     50 C          61.2421   93.8167    1.7786 C.ar    1  UNL1        0.0011
     51 C          62.4429   92.9566    2.0396 C.ar    1  UNL1        0.0145
     52 C          62.3789   91.8737    3.0755 C.ar    1  UNL1        0.0921
     53 CL         63.5798   91.0135    3.3365 Cl      1  UNL1       -0.0791
     54 C          61.1142   91.6508    3.8505 C.ar    1  UNL1        0.1553
     55 O          60.7556   90.6681    4.9255 O.2     1  UNL1       -0.4555
@<TRIPOS>BOND
     1     6     7    2
     2     7     8   am
     3    10     8    1
     4    10    11    1
     5    11    12   ar
     6    12    13   ar
     7    13    14   ar
     8    14    15   ar
     9    15    16   ar
    10    16    17    1
    11    17    18    1
    12    18    19    1
    13    19    20    1
    14     7     5    1
    15     5    22    1
    16    22    23    1
    17    23    24   ar
    18    24    25   ar
    19    25    26   ar
    20    26    27   ar
    21    27    28   ar
    22     5     4    1
    23     4     1    1
    24     1     2    1
    25     1    29    1
    26    29    30    1
    27    30    31    1
    28    31    32    1
    29    32    33    1
    30    33    45    1
    31    45    46    1
    32    46    47   ar
    33    47    48   ar
    34    48    49   ar
    35    49    50   ar
    36    50    51   ar
    37    51    52   ar
    38    52    53    1
    39    52    54   ar
    40    54    55   ar
    41    33    34    1
    42    34    35    1
    43    35    36    1
    44    36    37    2
    45    36    38   am
    46    38    40    1
    47    40    41    1
    48    41    42    1
    49    41    43    1
    50    41    44    1
    51    19    10    1
    52    28    23   ar
    53    35    30    1
    54    16    11   ar
    55    55    46   ar
    56    54    48   ar
    57     8     9    1
    58    20    21    1
    59     2     3    1
    60    38    39    1
@<TRIPOS>MOLECULE
*****
 55 60 0 0 0
SMALL
GASTEIGER

@<TRIPOS>ATOM
      1 C          62.6729   89.8532   13.4216 C.3     1  UNL1        0.1269
      2 O          61.9784   89.4216   14.6791 O.3     1  UNL1       -0.3830
      3 H          61.7281   88.4873   14.6059 H       1  UNL1        0.2104
      4 C          63.1631   91.2640   13.2819 C.3     1  UNL1        0.0401
      5 C          64.6332   91.5394   13.1688 C.3     1  UNL1        0.0833
      6 O          64.8380   91.9613   10.6134 O.2     1  UNL1       -0.2751
      7 C          65.1574   92.3559   12.0248 C.2     1  UNL1        0.2226
      8 N          66.0011   93.5670   12.2924 N.am    1  UNL1       -0.2999
      9 H          66.2107   93.8260   13.2188 H       1  UNL1        0.1498
     10 C          66.5253   94.3835   11.1485 C.3     1  UNL1        0.1278
     11 C          67.3413   93.7302   10.0727 C.ar    1  UNL1        0.0320
     12 C          67.6330   92.2605   10.1407 C.ar    1  UNL1        0.0004
     13 C          68.4490   91.6072    9.0649 C.ar    1  UNL1       -0.0001
     14 C          68.9733   92.4237    7.9210 C.ar    1  UNL1        0.0031
     15 C          68.6815   93.8934    7.8530 C.ar    1  UNL1        0.0366
     16 C          67.8655   94.5467    8.9288 C.ar    1  UNL1        0.1362
     17 O          67.5738   96.0165    8.8607 O.3     1  UNL1       -0.4730
     18 C          66.7578   96.6698    9.9365 C.3     1  UNL1        0.2364
     19 C          66.2335   95.8532   11.0805 C.3     1  UNL1        0.1762
     20 O          65.4175   96.5065   12.1563 O.3     1  UNL1       -0.3788
     21 H          65.3235   97.4521   11.9616 H       1  UNL1        0.2106
     22 C          65.5791   90.9984   14.1996 C.3     1  UNL1        0.0371
     23 C          66.7755   91.8022   14.6149 C.ar    1  UNL1       -0.0025
     24 C          66.6990   92.6938   15.8187 C.ar    1  UNL1       -0.0011
     25 C          67.8955   93.4976   16.2340 C.ar    1  UNL1        0.0204
     26 C          69.1684   93.4098   15.4455 C.ar    1  UNL1        0.0989
     27 N          69.2450   92.5182   14.2417 N.ar    1  UNL1       -0.2426
     28 C          68.0486   91.7144   13.8263 C.ar    1  UNL1        0.0946
     29 C          62.8773   88.8740   12.3038 C.3     1  UNL1        0.1021
     30 N          61.9846   88.9142   11.0990 N.3     1  UNL1       -0.2621
     31 C          61.4173   90.2210   10.6291 C.3     1  UNL1        0.0901
     32 C          60.5247   90.2612    9.4243 C.3     1  UNL1        0.0900
     33 N          60.1993   88.9946    8.6894 N.3     1  UNL1       -0.2635
     34 C          60.7665   87.6880    9.1593 C.3     1  UNL1        0.0980
     35 C          61.6592   87.6478   10.3640 C.3     1  UNL1        0.1510
     36 C          62.2265   86.3411   10.8339 C.2     1  UNL1        0.2386
     37 O          62.8215   85.3829    9.8451 O.2     1  UNL1       -0.2736
     38 N          62.1987   85.9926   12.2927 N.am    1  UNL1       -0.2961
     39 H          61.8082   86.6215   12.9417 H       1  UNL1        0.1497
     40 C          62.7660   84.6860   12.7625 C.3     1  UNL1        0.1939
     41 C          64.0789   84.6557   13.4875 C.3     1  UNL1        0.4154
     42 F          65.3916   84.6254   14.2125 F       1  UNL1       -0.1682
     43 F          64.2704   83.2246   13.0810 F       1  UNL1       -0.1682
     44 F          63.8874   86.0867   13.8941 F       1  UNL1       -0.1682
     45 C          59.3066   89.0348    7.4846 C.3     1  UNL1        0.1377
     46 C          59.6381   89.9402    6.3354 C.ar    1  UNL1        0.1390
     47 C          58.6997   90.9062    5.6749 C.ar    1  UNL1        0.0374
     48 C          59.4478   91.6015    4.5764 C.ar    1  UNL1        0.0381
     49 C          59.0345   92.6537    3.5904 C.ar    1  UNL1        0.0032
     50 C          60.0220   93.1696    2.5860 C.ar    1  UNL1        0.0011
     51 C          61.4227   92.6333    2.5676 C.ar    1  UNL1        0.0145
     52 C          61.8360   91.5812    3.5535 C.ar    1  UNL1        0.0921
     53 CL         63.2367   91.0449    3.5351 Cl      1  UNL1       -0.0791
     54 C          60.8486   91.0652    4.5579 C.ar    1  UNL1        0.1553
     55 O          60.9661   90.0385    5.6451 O.2     1  UNL1       -0.4555
@<TRIPOS>BOND
     1     6     7    2
     2     7     8   am
     3    10     8    1
     4    10    11    1
     5    11    12   ar
     6    12    13   ar
     7    13    14   ar
     8    14    15   ar
     9    15    16   ar
    10    16    17    1
    11    17    18    1
    12    18    19    1
    13    19    20    1
    14     7     5    1
    15     5    22    1
    16    22    23    1
    17    23    24   ar
    18    24    25   ar
    19    25    26   ar
    20    26    27   ar
    21    27    28   ar
    22     5     4    1
    23     4     1    1
    24     1     2    1
    25     1    29    1
    26    29    30    1
    27    30    31    1
    28    31    32    1
    29    32    33    1
    30    33    45    1
    31    45    46    1
    32    46    47   ar
    33    47    48   ar
    34    48    49   ar
    35    49    50   ar
    36    50    51   ar
    37    51    52   ar
    38    52    53    1
    39    52    54   ar
    40    54    55   ar
    41    33    34    1
    42    34    35    1
    43    35    36    1
    44    36    37    2
    45    36    38   am
    46    38    40    1
    47    40    41    1
    48    41    42    1
    49    41    43    1
    50    41    44    1
    51    19    10    1
    52    28    23   ar
    53    35    30    1
    54    16    11   ar
    55    55    46   ar
    56    54    48   ar
    57     8     9    1
    58    20    21    1
    59     2     3    1
    60    38    39    1
@<TRIPOS>MOLECULE
*****
 55 60 0 0 0
SMALL
GASTEIGER

@<TRIPOS>ATOM
      1 C          63.4508   89.3526   13.7723 C.3     1  UNL1        0.1269
      2 O          63.4675   89.0325   15.2376 O.3     1  UNL1       -0.3830
      3 H          63.5202   88.0714   15.3580 H       1  UNL1        0.2104
      4 C          63.3726   90.7798   13.3173 C.3     1  UNL1        0.0401
      5 C          64.5610   91.6821   13.4708 C.3     1  UNL1        0.0833
      6 O          64.7178   92.0180   10.8993 O.2     1  UNL1       -0.2751
      7 C          65.0773   92.4498   12.2900 C.2     1  UNL1        0.2226
      8 N          65.9530   93.6494   12.5002 N.am    1  UNL1       -0.2999
      9 H          66.1889   93.9328   13.4130 H       1  UNL1        0.1498
     10 C          66.4693   94.4171   11.3195 C.3     1  UNL1        0.1278
     11 C          67.2635   93.7157   10.2578 C.ar    1  UNL1        0.0320
     12 C          67.5414   92.2465   10.3768 C.ar    1  UNL1        0.0004
     13 C          68.3356   91.5451    9.3150 C.ar    1  UNL1       -0.0001
     14 C          68.8519   92.3128    8.1344 C.ar    1  UNL1        0.0031
     15 C          68.5740   93.7820    8.0155 C.ar    1  UNL1        0.0366
     16 C          67.7798   94.4834    9.0772 C.ar    1  UNL1        0.1362
     17 O          67.5019   95.9527    8.9582 O.3     1  UNL1       -0.4730
     18 C          66.7077   96.6542   10.0199 C.3     1  UNL1        0.2364
     19 C          66.1914   95.8863   11.2006 C.3     1  UNL1        0.1762
     20 O          65.3972   96.5878   12.2623 O.3     1  UNL1       -0.3788
     21 H          65.3099   97.5264   12.0337 H       1  UNL1        0.2106
     22 C          65.2331   91.8167   14.8050 C.3     1  UNL1        0.0371
     23 C          66.6797   92.2062   14.8802 C.ar    1  UNL1       -0.0025
     24 C          67.1465   93.1552   15.9438 C.ar    1  UNL1       -0.0011
     25 C          68.5932   93.5448   16.0190 C.ar    1  UNL1        0.0204
     26 C          69.5729   92.9853   15.0305 C.ar    1  UNL1        0.0989
     27 N          69.1060   92.0363   13.9668 N.ar    1  UNL1       -0.2426
     28 C          67.6594   91.6468   13.8916 C.ar    1  UNL1        0.0946
     29 C          63.5122   88.2456   12.7620 C.3     1  UNL1        0.1021
     30 N          62.4834   88.1659   11.6733 N.3     1  UNL1       -0.2621
     31 C          61.9511   89.4227   11.0510 C.3     1  UNL1        0.0901
     32 C          60.9223   89.3430    9.9623 C.3     1  UNL1        0.0900
     33 N          60.4258   88.0065    9.4959 N.3     1  UNL1       -0.2635
     34 C          60.9581   86.7498   10.1182 C.3     1  UNL1        0.0980
     35 C          61.9869   86.8295   11.2069 C.3     1  UNL1        0.1510
     36 C          62.5192   85.5728   11.8292 C.2     1  UNL1        0.2386
     37 O          62.4229   85.3713   13.3125 O.2     1  UNL1       -0.2736
     38 N          63.1480   84.5176   10.9682 N.am    1  UNL1       -0.2961
     39 H          63.2112   84.6498    9.9947 H       1  UNL1        0.1497
     40 C          63.6803   83.2609   11.5905 C.3     1  UNL1        0.1939
     41 C          63.4009   81.9318   10.9535 C.3     1  UNL1        0.4154
     42 F          63.1214   80.6029   10.3165 F       1  UNL1       -0.1682
     43 F          64.5043   82.1729    9.9664 F       1  UNL1       -0.1682
     44 F          62.2975   81.6908   11.9406 F       1  UNL1       -0.1682
     45 C          59.3970   87.9268    8.4072 C.3     1  UNL1        0.1377
     46 C          59.3748   88.9593    7.3192 C.ar    1  UNL1        0.1390
     47 C          60.5712   89.5076    6.5995 C.ar    1  UNL1        0.0374
     48 C          60.0882   90.5118    5.5955 C.ar    1  UNL1        0.0381
     49 C          60.8164   91.3697    4.6037 C.ar    1  UNL1        0.0032
     50 C          60.0497   92.3001    3.7111 C.ar    1  UNL1        0.0011
     51 C          58.5547   92.3724    3.8103 C.ar    1  UNL1        0.0145
     52 C          57.8265   91.5145    4.8021 C.ar    1  UNL1        0.0921
     53 CL         56.3316   91.5869    4.9013 Cl      1  UNL1       -0.0791
     54 C          58.5932   90.5842    5.6947 C.ar    1  UNL1        0.1553
     55 O          58.1523   89.6247    6.7600 O.2     1  UNL1       -0.4555
@<TRIPOS>BOND
     1     6     7    2
     2     7     8   am
     3    10     8    1
     4    10    11    1
     5    11    12   ar
     6    12    13   ar
     7    13    14   ar
     8    14    15   ar
     9    15    16   ar
    10    16    17    1
    11    17    18    1
    12    18    19    1
    13    19    20    1
    14     7     5    1
    15     5    22    1
    16    22    23    1
    17    23    24   ar
    18    24    25   ar
    19    25    26   ar
    20    26    27   ar
    21    27    28   ar
    22     5     4    1
    23     4     1    1
    24     1     2    1
    25     1    29    1
    26    29    30    1
    27    30    31    1
    28    31    32    1
    29    32    33    1
    30    33    45    1
    31    45    46    1
    32    46    47   ar
    33    47    48   ar
    34    48    49   ar
    35    49    50   ar
    36    50    51   ar
    37    51    52   ar
    38    52    53    1
    39    52    54   ar
    40    54    55   ar
    41    33    34    1
    42    34    35    1
    43    35    36    1
    44    36    37    2
    45    36    38   am
    46    38    40    1
    47    40    41    1
    48    41    42    1
    49    41    43    1
    50    41    44    1
    51    19    10    1
    52    28    23   ar
    53    35    30    1
    54    16    11   ar
    55    55    46   ar
    56    54    48   ar
    57     8     9    1
    58    20    21    1
    59     2     3    1
    60    38    39    1
@<TRIPOS>MOLECULE
*****
 55 60 0 0 0
SMALL
GASTEIGER

@<TRIPOS>ATOM
      1 C          62.6293   88.4027   12.3128 C.3     1  UNL1        0.1269
      2 O          61.9089   89.6864   12.6006 O.3     1  UNL1       -0.3830
      3 H          61.1445   89.7679   12.0090 H       1  UNL1        0.2104
      4 C          63.8548   88.0382   13.0973 C.3     1  UNL1        0.0401
      5 C          64.1518   88.7358   14.3915 C.3     1  UNL1        0.0833
      6 O          63.5630   91.2416   14.7444 O.2     1  UNL1       -0.2751
      7 C          64.5604   90.1792   14.3890 C.2     1  UNL1        0.2226
      8 N          65.9664   90.5600   14.0310 N.am    1  UNL1       -0.2999
      9 H          66.6210   89.8627   13.7977 H       1  UNL1        0.1498
     10 C          66.3750   92.0032   14.0285 C.3     1  UNL1        0.1278
     11 C          66.0910   92.8610   12.8312 C.ar    1  UNL1        0.0320
     12 C          65.3984   92.2756   11.6365 C.ar    1  UNL1        0.0004
     13 C          65.1144   93.1334   10.4392 C.ar    1  UNL1       -0.0001
     14 C          65.5230   94.5767   10.4367 C.ar    1  UNL1        0.0031
     15 C          66.2156   95.1621   11.6314 C.ar    1  UNL1        0.0366
     16 C          66.4996   94.3043   12.8287 C.ar    1  UNL1        0.1362
     17 O          67.1922   94.8898   14.0236 O.3     1  UNL1       -0.4730
     18 C          67.4762   94.0320   15.2208 C.3     1  UNL1        0.2364
     19 C          67.0676   92.5886   15.2233 C.3     1  UNL1        0.1762
     20 O          67.3516   91.7308   16.4206 O.3     1  UNL1       -0.3788
     21 H          67.8004   92.2600   17.0984 H       1  UNL1        0.2106
     22 C          64.0403   87.9902   15.6883 C.3     1  UNL1        0.0371
     23 C          63.7934   86.5107   15.6839 C.ar    1  UNL1       -0.0025
     24 C          64.7055   85.6004   14.9160 C.ar    1  UNL1       -0.0011
     25 C          64.4586   84.1208   14.9117 C.ar    1  UNL1        0.0204
     26 C          63.2997   83.5516   15.6751 C.ar    1  UNL1        0.0989
     27 N          62.3877   84.4618   16.4429 N.ar    1  UNL1       -0.2426
     28 C          62.6345   85.9414   16.4473 C.ar    1  UNL1        0.0946
     29 C          62.1244   87.4834   11.2404 C.3     1  UNL1        0.1021
     30 N          61.3071   88.0300   10.1076 N.3     1  UNL1       -0.2621
     31 C          60.5935   89.3404   10.2616 C.3     1  UNL1        0.0901
     32 C          59.7762   89.8870    9.1288 C.3     1  UNL1        0.0900
     33 N          59.6726   89.1232    7.8419 N.3     1  UNL1       -0.2635
     34 C          60.3862   87.8128    7.6879 C.3     1  UNL1        0.0980
     35 C          61.2034   87.2662    8.8208 C.3     1  UNL1        0.1510
     36 C          61.9170   85.9559    8.6668 C.2     1  UNL1        0.2386
     37 O          61.8482   85.2128    7.3656 O.2     1  UNL1       -0.2736
     38 N          62.6994   85.3886    9.8140 N.am    1  UNL1       -0.2961
     39 H          62.7446   85.8763   10.6680 H       1  UNL1        0.1497
     40 C          63.4130   84.0783    9.6600 C.3     1  UNL1        0.1939
     41 C          63.8843   83.3337   10.8740 C.3     1  UNL1        0.4154
     42 F          64.3556   82.5892   12.0879 F       1  UNL1       -0.1682
     43 F          64.3366   82.1995   10.0028 F       1  UNL1       -0.1682
     44 F          63.4321   84.4679   11.7452 F       1  UNL1       -0.1682
     45 C          58.8553   89.6698    6.7091 C.3     1  UNL1        0.1377
     46 C          59.5089   90.5023    5.6461 C.ar    1  UNL1        0.1390
     47 C          58.8767   91.6448    4.9079 C.ar    1  UNL1        0.0374
     48 C          59.8866   92.1870    3.9404 C.ar    1  UNL1        0.0381
     49 C          59.8244   93.3116    2.9497 C.ar    1  UNL1        0.0032
     50 C          61.0188   93.6289    2.0993 C.ar    1  UNL1        0.0011
     51 C          62.2751   92.8215    2.2396 C.ar    1  UNL1        0.0145
     52 C          62.3372   91.6969    3.2303 C.ar    1  UNL1        0.0921
     53 CL         63.5935   90.8895    3.3705 Cl      1  UNL1       -0.0791
     54 C          61.1430   91.3796    4.0806 C.ar    1  UNL1        0.1553
     55 O          60.9096   90.3384    5.1348 O.2     1  UNL1       -0.4555
@<TRIPOS>BOND
     1     6     7    2
     2     7     8   am
     3    10     8    1
     4    10    11    1
     5    11    12   ar
     6    12    13   ar
     7    13    14   ar
     8    14    15   ar
     9    15    16   ar
    10    16    17    1
    11    17    18    1
    12    18    19    1
    13    19    20    1
    14     7     5    1
    15     5    22    1
    16    22    23    1
    17    23    24   ar
    18    24    25   ar
    19    25    26   ar
    20    26    27   ar
    21    27    28   ar
    22     5     4    1
    23     4     1    1
    24     1     2    1
    25     1    29    1
    26    29    30    1
    27    30    31    1
    28    31    32    1
    29    32    33    1
    30    33    45    1
    31    45    46    1
    32    46    47   ar
    33    47    48   ar
    34    48    49   ar
    35    49    50   ar
    36    50    51   ar
    37    51    52   ar
    38    52    53    1
    39    52    54   ar
    40    54    55   ar
    41    33    34    1
    42    34    35    1
    43    35    36    1
    44    36    37    2
    45    36    38   am
    46    38    40    1
    47    40    41    1
    48    41    42    1
    49    41    43    1
    50    41    44    1
    51    19    10    1
    52    28    23   ar
    53    35    30    1
    54    16    11   ar
    55    55    46   ar
    56    54    48   ar
    57     8     9    1
    58    20    21    1
    59     2     3    1
    60    38    39    1
@<TRIPOS>MOLECULE
*****
 55 60 0 0 0
SMALL
GASTEIGER

@<TRIPOS>ATOM
      1 C          62.6256   88.5423   11.7576 C.3     1  UNL1        0.1269
      2 O          62.8067   90.0006   11.4568 O.3     1  UNL1       -0.3830
      3 H          62.1380   90.2835   10.8136 H       1  UNL1        0.2104
      4 C          63.5403   87.8577   12.7295 C.3     1  UNL1        0.0401
      5 C          63.9306   88.5454   14.0041 C.3     1  UNL1        0.0833
      6 O          63.6270   90.9742   14.8753 O.2     1  UNL1       -0.2751
      7 C          64.3280   89.9917   13.9847 C.2     1  UNL1        0.2226
      8 N          65.4265   90.4554   13.0746 N.am    1  UNL1       -0.2999
      9 H          65.8866   89.8106   12.4900 H       1  UNL1        0.1498
     10 C          65.8240   91.9017   13.0551 C.3     1  UNL1        0.1278
     11 C          66.7123   92.4499   14.1323 C.ar    1  UNL1        0.0320
     12 C          67.2032   91.5519   15.2289 C.ar    1  UNL1        0.0004
     13 C          68.0915   92.1001   16.3060 C.ar    1  UNL1       -0.0001
     14 C          68.4890   93.5464   16.2866 C.ar    1  UNL1        0.0031
     15 C          67.9981   94.4443   15.1900 C.ar    1  UNL1        0.0366
     16 C          67.1098   93.8961   14.1128 C.ar    1  UNL1        0.1362
     17 O          66.6189   94.7942   13.0161 O.3     1  UNL1       -0.4730
     18 C          65.7306   94.2459   11.9390 C.3     1  UNL1        0.2364
     19 C          65.3331   92.7996   11.9585 C.3     1  UNL1        0.1762
     20 O          64.4447   92.2514   10.8813 O.3     1  UNL1       -0.3788
     21 H          64.2204   92.9584   10.2563 H       1  UNL1        0.2106
     22 C          63.9234   87.7869   15.2982 C.3     1  UNL1        0.0371
     23 C          63.9339   86.2870   15.2884 C.ar    1  UNL1       -0.0025
     24 C          65.0379   85.5492   14.5909 C.ar    1  UNL1       -0.0011
     25 C          65.0483   84.0492   14.5812 C.ar    1  UNL1        0.0204
     26 C          63.9547   83.2871   15.2690 C.ar    1  UNL1        0.0989
     27 N          62.8506   84.0249   15.9666 N.ar    1  UNL1       -0.2426
     28 C          62.8402   85.5248   15.9763 C.ar    1  UNL1        0.0946
     29 C          61.5297   87.7685   11.0864 C.3     1  UNL1        0.1021
     30 N          60.8259   88.3456    9.8940 N.3     1  UNL1       -0.2621
     31 C          60.2006   89.7064    9.9783 C.3     1  UNL1        0.0901
     32 C          59.4968   90.2835    8.7860 C.3     1  UNL1        0.0900
     33 N          59.4183   89.4997    7.5094 N.3     1  UNL1       -0.2635
     34 C          60.0436   88.1389    7.4252 C.3     1  UNL1        0.0980
     35 C          60.7474   87.5618    8.6175 C.3     1  UNL1        0.1510
     36 C          61.3728   86.2010    8.5333 C.2     1  UNL1        0.2386
     37 O          60.8370   85.1880    7.5654 O.2     1  UNL1       -0.2736
     38 N          62.5339   85.8532    9.4170 N.am    1  UNL1       -0.2961
     39 H          62.8855   86.5180   10.0523 H       1  UNL1        0.1497
     40 C          63.1592   84.4924    9.3328 C.3     1  UNL1        0.1939
     41 C          63.5089   83.7487   10.5877 C.3     1  UNL1        0.4154
     42 F          63.8585   83.0050   11.8426 F       1  UNL1       -0.1682
     43 F          64.6190   83.0472    9.8628 F       1  UNL1       -0.1682
     44 F          62.3988   84.4501   11.3127 F       1  UNL1       -0.1682
     45 C          58.7145   90.0768    6.3171 C.3     1  UNL1        0.1377
     46 C          59.4885   90.8507    5.2913 C.ar    1  UNL1        0.1390
     47 C          58.9844   92.0275    4.5095 C.ar    1  UNL1        0.0374
     48 C          60.0867   92.4877    3.6023 C.ar    1  UNL1        0.0381
     49 C          60.1643   93.6041    2.6034 C.ar    1  UNL1        0.0032
     50 C          61.4273   93.8281    1.8256 C.ar    1  UNL1        0.0011
     51 C          62.6125   92.9359    2.0468 C.ar    1  UNL1        0.0145
     52 C          62.5350   91.8195    3.0457 C.ar    1  UNL1        0.0921
     53 CL         63.7202   90.9273    3.2668 Cl      1  UNL1       -0.0791
     54 C          61.2721   91.5955    3.8234 C.ar    1  UNL1        0.1553
     55 O          60.9023   90.5838    4.8673 O.2     1  UNL1       -0.4555
@<TRIPOS>BOND
     1     6     7    2
     2     7     8   am
     3    10     8    1
     4    10    11    1
     5    11    12   ar
     6    12    13   ar
     7    13    14   ar
     8    14    15   ar
     9    15    16   ar
    10    16    17    1
    11    17    18    1
    12    18    19    1
    13    19    20    1
    14     7     5    1
    15     5    22    1
    16    22    23    1
    17    23    24   ar
    18    24    25   ar
    19    25    26   ar
    20    26    27   ar
    21    27    28   ar
    22     5     4    1
    23     4     1    1
    24     1     2    1
    25     1    29    1
    26    29    30    1
    27    30    31    1
    28    31    32    1
    29    32    33    1
    30    33    45    1
    31    45    46    1
    32    46    47   ar
    33    47    48   ar
    34    48    49   ar
    35    49    50   ar
    36    50    51   ar
    37    51    52   ar
    38    52    53    1
    39    52    54   ar
    40    54    55   ar
    41    33    34    1
    42    34    35    1
    43    35    36    1
    44    36    37    2
    45    36    38   am
    46    38    40    1
    47    40    41    1
    48    41    42    1
    49    41    43    1
    50    41    44    1
    51    19    10    1
    52    28    23   ar
    53    35    30    1
    54    16    11   ar
    55    55    46   ar
    56    54    48   ar
    57     8     9    1
    58    20    21    1
    59     2     3    1
    60    38    39    1
@<TRIPOS>MOLECULE
*****
 55 60 0 0 0
SMALL
GASTEIGER

@<TRIPOS>ATOM
      1 C          61.8188   90.3853   10.8886 C.3     1  UNL1        0.1269
      2 O          60.6212   91.2883   10.9062 O.3     1  UNL1       -0.3830
      3 H          60.6366   91.8301   11.7107 H       1  UNL1        0.2104
      4 C          62.0291   89.4408    9.7424 C.3     1  UNL1        0.0401
      5 C          60.8482   88.8693    9.0152 C.3     1  UNL1        0.0833
      6 O          59.1190   90.7713    8.6379 O.2     1  UNL1       -0.2751
      7 C          60.0503   89.7338    8.0845 C.2     1  UNL1        0.2226
      8 N          60.1836   89.5607    6.6005 N.am    1  UNL1       -0.2999
      9 H          60.7949   88.8797    6.2373 H       1  UNL1        0.1498
     10 C          59.3858   90.4251    5.6699 C.3     1  UNL1        0.1278
     11 C          60.0821   91.2379    4.6190 C.ar    1  UNL1        0.0320
     12 C          61.5764   91.1862    4.4986 C.ar    1  UNL1        0.0004
     13 C          62.2727   91.9990    3.4477 C.ar    1  UNL1       -0.0001
     14 C          61.4748   92.8634    2.5171 C.ar    1  UNL1        0.0031
     15 C          59.9806   92.9151    2.6374 C.ar    1  UNL1        0.0366
     16 C          59.2842   92.1023    3.6883 C.ar    1  UNL1        0.1362
     17 O          57.7899   92.1540    3.8086 O.3     1  UNL1       -0.4730
     18 C          57.0936   91.3412    4.8596 C.3     1  UNL1        0.2364
     19 C          57.8915   90.4768    5.7902 C.3     1  UNL1        0.1762
     20 O          57.1952   89.6640    6.8412 O.3     1  UNL1       -0.3788
     21 H          56.2382   89.8113    6.7825 H       1  UNL1        0.2106
     22 C          60.4653   87.4333    9.2185 C.3     1  UNL1        0.0371
     23 C          61.0745   86.3657    8.3589 C.ar    1  UNL1       -0.0025
     24 C          62.4908   85.9311    8.5938 C.ar    1  UNL1       -0.0011
     25 C          63.1000   84.8633    7.7342 C.ar    1  UNL1        0.0204
     26 C          62.2930   84.2303    6.6397 C.ar    1  UNL1        0.0989
     27 N          60.8767   84.6650    6.4048 N.ar    1  UNL1       -0.2426
     28 C          60.2674   85.7326    7.2644 C.ar    1  UNL1        0.0946
     29 C          62.8062   90.4268   12.0171 C.3     1  UNL1        0.1021
     30 N          63.2161   89.1569   12.7020 N.3     1  UNL1       -0.2621
     31 C          62.7877   87.8319   12.1442 C.3     1  UNL1        0.0901
     32 C          63.1976   86.5620   12.8292 C.3     1  UNL1        0.0900
     33 N          64.0358   86.6170   14.0720 N.3     1  UNL1       -0.2635
     34 C          64.4641   87.9419   14.6298 C.3     1  UNL1        0.0980
     35 C          64.0542   89.2119   13.9448 C.3     1  UNL1        0.1510
     36 C          64.4825   90.5368   14.5025 C.2     1  UNL1        0.2386
     37 O          63.5831   91.2796   15.4455 O.2     1  UNL1       -0.2736
     38 N          65.8102   91.1189   14.1173 N.am    1  UNL1       -0.2961
     39 H          66.4006   90.6313   13.4983 H       1  UNL1        0.1497
     40 C          66.2385   92.4438   14.6750 C.3     1  UNL1        0.1939
     41 C          67.4078   92.5207   15.6115 C.3     1  UNL1        0.4154
     42 F          68.5770   92.5977   16.5480 F       1  UNL1       -0.1682
     43 F          66.4728   92.7635   16.7590 F       1  UNL1       -0.1682
     44 F          68.3428   92.2780   14.4640 F       1  UNL1       -0.1682
     45 C          64.4457   85.3470   14.7570 C.3     1  UNL1        0.1377
     46 C          63.9611   84.0253   14.2389 C.ar    1  UNL1        0.1390
     47 C          63.3099   82.9452   15.0508 C.ar    1  UNL1        0.0374
     48 C          62.9890   81.8041   14.1316 C.ar    1  UNL1        0.0381
     49 C          62.3429   80.4720   14.3729 C.ar    1  UNL1        0.0032
     50 C          62.1497   79.5149   13.2342 C.ar    1  UNL1        0.0011
     51 C          62.6027   79.8898   11.8543 C.ar    1  UNL1        0.0145
     52 C          63.2488   81.2218   11.6130 C.ar    1  UNL1        0.0921
     53 CL         63.7017   81.5967   10.2331 Cl      1  UNL1       -0.0791
     54 C          63.4419   82.1789   12.7516 C.ar    1  UNL1        0.1553
     55 O          64.0427   83.5518   12.8180 O.2     1  UNL1       -0.4555
@<TRIPOS>BOND
     1     6     7    2
     2     7     8   am
     3    10     8    1
     4    10    11    1
     5    11    12   ar
     6    12    13   ar
     7    13    14   ar
     8    14    15   ar
     9    15    16   ar
    10    16    17    1
    11    17    18    1
    12    18    19    1
    13    19    20    1
    14     7     5    1
    15     5    22    1
    16    22    23    1
    17    23    24   ar
    18    24    25   ar
    19    25    26   ar
    20    26    27   ar
    21    27    28   ar
    22     5     4    1
    23     4     1    1
    24     1     2    1
    25     1    29    1
    26    29    30    1
    27    30    31    1
    28    31    32    1
    29    32    33    1
    30    33    45    1
    31    45    46    1
    32    46    47   ar
    33    47    48   ar
    34    48    49   ar
    35    49    50   ar
    36    50    51   ar
    37    51    52   ar
    38    52    53    1
    39    52    54   ar
    40    54    55   ar
    41    33    34    1
    42    34    35    1
    43    35    36    1
    44    36    37    2
    45    36    38   am
    46    38    40    1
    47    40    41    1
    48    41    42    1
    49    41    43    1
    50    41    44    1
    51    19    10    1
    52    28    23   ar
    53    35    30    1
    54    16    11   ar
    55    55    46   ar
    56    54    48   ar
    57     8     9    1
    58    20    21    1
    59     2     3    1
    60    38    39    1
@<TRIPOS>MOLECULE
*****
 55 60 0 0 0
SMALL
GASTEIGER

@<TRIPOS>ATOM
      1 C          62.7398   90.1830   13.1917 C.3     1  UNL1        0.1269
      2 O          61.2428   90.0897   13.1783 O.3     1  UNL1       -0.3830
      3 H          60.9740   89.2680   12.7385 H       1  UNL1        0.2104
      4 C          63.4118   91.3683   13.8190 C.3     1  UNL1        0.0401
      5 C          64.8637   91.6351   13.5529 C.3     1  UNL1        0.0833
      6 O          64.7816   92.0431   10.9883 O.2     1  UNL1       -0.2751
      7 C          65.2713   92.4347   12.3509 C.2     1  UNL1        0.2226
      8 N          66.1687   93.6258   12.5117 N.am    1  UNL1       -0.2999
      9 H          66.4902   93.8828   13.4061 H       1  UNL1        0.1498
     10 C          66.5764   94.4254   11.3099 C.3     1  UNL1        0.1278
     11 C          67.3402   93.7706   10.1972 C.ar    1  UNL1        0.0320
     12 C          67.6963   92.3163   10.2865 C.ar    1  UNL1        0.0004
     13 C          68.4600   91.6615    9.1739 C.ar    1  UNL1       -0.0001
     14 C          68.8677   92.4610    7.9720 C.ar    1  UNL1        0.0031
     15 C          68.5116   93.9154    7.8828 C.ar    1  UNL1        0.0366
     16 C          67.7478   94.5702    8.9954 C.ar    1  UNL1        0.1362
     17 O          67.3917   96.0246    8.9061 O.3     1  UNL1       -0.4730
     18 C          66.6279   96.6794   10.0187 C.3     1  UNL1        0.2364
     19 C          66.2203   95.8797   11.2206 C.3     1  UNL1        0.1762
     20 O          65.4565   96.5345   12.3333 O.3     1  UNL1       -0.3788
     21 H          65.3100   97.4691   12.1186 H       1  UNL1        0.2106
     22 C          65.9080   91.1024   14.4887 C.3     1  UNL1        0.0371
     23 C          67.1029   91.9405   14.8345 C.ar    1  UNL1       -0.0025
     24 C          67.0253   92.9290   15.9601 C.ar    1  UNL1       -0.0011
     25 C          68.2203   93.7672   16.3059 C.ar    1  UNL1        0.0204
     26 C          69.4929   93.6168   15.5262 C.ar    1  UNL1        0.0989
     27 N          69.5705   92.6283   14.4006 N.ar    1  UNL1       -0.2426
     28 C          68.3755   91.7902   14.0548 C.ar    1  UNL1        0.0946
     29 C          63.5649   89.0911   12.5776 C.3     1  UNL1        0.1021
     30 N          63.5021   87.6999   13.1351 N.3     1  UNL1       -0.2621
     31 C          64.2734   87.3530   14.3741 C.3     1  UNL1        0.0901
     32 C          64.2106   85.9618   14.9316 C.3     1  UNL1        0.0900
     33 N          63.3766   84.9177   14.2501 N.3     1  UNL1       -0.2635
     34 C          62.6055   85.2647   13.0113 C.3     1  UNL1        0.0980
     35 C          62.6682   86.6558   12.4538 C.3     1  UNL1        0.1510
     36 C          61.8970   87.0028   11.2149 C.2     1  UNL1        0.2386
     37 O          60.7084   87.9136   11.3018 O.2     1  UNL1       -0.2736
     38 N          62.3145   86.4390    9.8890 N.am    1  UNL1       -0.2961
     39 H          63.0946   85.8412    9.8319 H       1  UNL1        0.1497
     40 C          61.5433   86.7860    8.6501 C.3     1  UNL1        0.1939
     41 C          61.2282   85.7225    7.6403 C.3     1  UNL1        0.4154
     42 F          60.9131   84.6591    6.6305 F       1  UNL1       -0.1682
     43 F          62.6870   85.3893    7.5360 F       1  UNL1       -0.1682
     44 F          59.7695   86.0558    7.7445 F       1  UNL1       -0.1682
     45 C          63.3139   83.5265   14.8076 C.3     1  UNL1        0.1377
     46 C          63.1461   82.3557   13.8850 C.ar    1  UNL1        0.1390
     47 C          62.6897   80.9819   14.2779 C.ar    1  UNL1        0.0374
     48 C          62.6668   80.1303   13.0433 C.ar    1  UNL1        0.0381
     49 C          62.3003   78.6926   12.8224 C.ar    1  UNL1        0.0032
     50 C          62.3761   78.1025   11.4454 C.ar    1  UNL1        0.0011
     51 C          62.8184   78.9500   10.2895 C.ar    1  UNL1        0.0145
     52 C          63.1848   80.3876   10.5104 C.ar    1  UNL1        0.0921
     53 CL         63.6270   81.2351    9.3545 Cl      1  UNL1       -0.0791
     54 C          63.1090   80.9778   11.8873 C.ar    1  UNL1        0.1553
     55 O          63.4052   82.3531   12.4076 O.2     1  UNL1       -0.4555
@<TRIPOS>BOND
     1     6     7    2
     2     7     8   am
     3    10     8    1
     4    10    11    1
     5    11    12   ar
     6    12    13   ar
     7    13    14   ar
     8    14    15   ar
     9    15    16   ar
    10    16    17    1
    11    17    18    1
    12    18    19    1
    13    19    20    1
    14     7     5    1
    15     5    22    1
    16    22    23    1
    17    23    24   ar
    18    24    25   ar
    19    25    26   ar
    20    26    27   ar
    21    27    28   ar
    22     5     4    1
    23     4     1    1
    24     1     2    1
    25     1    29    1
    26    29    30    1
    27    30    31    1
    28    31    32    1
    29    32    33    1
    30    33    45    1
    31    45    46    1
    32    46    47   ar
    33    47    48   ar
    34    48    49   ar
    35    49    50   ar
    36    50    51   ar
    37    51    52   ar
    38    52    53    1
    39    52    54   ar
    40    54    55   ar
    41    33    34    1
    42    34    35    1
    43    35    36    1
    44    36    37    2
    45    36    38   am
    46    38    40    1
    47    40    41    1
    48    41    42    1
    49    41    43    1
    50    41    44    1
    51    19    10    1
    52    28    23   ar
    53    35    30    1
    54    16    11   ar
    55    55    46   ar
    56    54    48   ar
    57     8     9    1
    58    20    21    1
    59     2     3    1
    60    38    39    1
@<TRIPOS>MOLECULE
*****
 55 60 0 0 0
SMALL
GASTEIGER

@<TRIPOS>ATOM
      1 C          62.2669   90.5404   12.2538 C.3     1  UNL1        0.1269
      2 O          60.8436   90.8572   11.9020 O.3     1  UNL1       -0.3830
      3 H          60.5456   90.2638   11.1949 H       1  UNL1        0.2104
      4 C          62.9661   91.3219   13.3264 C.3     1  UNL1        0.0401
      5 C          64.4437   91.5637   13.2359 C.3     1  UNL1        0.0833
      6 O          64.6753   91.9965   10.6845 O.2     1  UNL1       -0.2751
      7 C          65.0039   92.3679   12.1002 C.2     1  UNL1        0.2226
      8 N          65.8926   93.5433   12.3803 N.am    1  UNL1       -0.2999
      9 H          66.1083   93.7870   13.3094 H       1  UNL1        0.1498
     10 C          66.4528   94.3474   11.2447 C.3     1  UNL1        0.1278
     11 C          67.2744   93.6764   10.1842 C.ar    1  UNL1        0.0320
     12 C          67.5358   92.2013   10.2592 C.ar    1  UNL1        0.0004
     13 C          68.3574   91.5303    9.1987 C.ar    1  UNL1       -0.0001
     14 C          68.9176   92.3344    8.0631 C.ar    1  UNL1        0.0031
     15 C          68.6562   93.8095    7.9881 C.ar    1  UNL1        0.0366
     16 C          67.8346   94.4805    9.0486 C.ar    1  UNL1        0.1362
     17 O          67.5732   95.9557    8.9735 O.3     1  UNL1       -0.4730
     18 C          66.7516   96.6267   10.0341 C.3     1  UNL1        0.2364
     19 C          66.1914   95.8225   11.1697 C.3     1  UNL1        0.1762
     20 O          65.3698   96.4935   12.2302 O.3     1  UNL1       -0.3788
     21 H          65.2979   97.4405   12.0327 H       1  UNL1        0.2106
     22 C          65.3611   91.0015   14.2809 C.3     1  UNL1        0.0371
     23 C          66.5254   91.8106   14.7705 C.ar    1  UNL1       -0.0025
     24 C          67.8625   91.6807   14.1033 C.ar    1  UNL1       -0.0011
     25 C          69.0269   92.4898   14.5929 C.ar    1  UNL1        0.0204
     26 C          68.8541   93.4288   15.7498 C.ar    1  UNL1        0.0989
     27 N          67.5170   93.5587   16.4171 N.ar    1  UNL1       -0.2426
     28 C          66.3527   92.7496   15.9275 C.ar    1  UNL1        0.0946
     29 C          62.9911   89.4422   11.5330 C.3     1  UNL1        0.1021
     30 N          63.1224   88.0888   12.1663 N.3     1  UNL1       -0.2621
     31 C          63.9311   87.9220   13.4186 C.3     1  UNL1        0.0901
     32 C          64.0625   86.5686   14.0519 C.3     1  UNL1        0.0900
     33 N          63.3851   85.3820   13.4328 N.3     1  UNL1       -0.2635
     34 C          62.5764   85.5488   12.1805 C.3     1  UNL1        0.0980
     35 C          62.4451   86.9022   11.5473 C.3     1  UNL1        0.1510
     36 C          61.6365   87.0690   10.2950 C.2     1  UNL1        0.2386
     37 O          62.2752   86.8522    8.9553 O.2     1  UNL1       -0.2736
     38 N          60.1889   87.4527   10.3825 N.am    1  UNL1       -0.2961
     39 H          59.7696   87.5949   11.2618 H       1  UNL1        0.1497
     40 C          59.3803   87.6195    9.1302 C.3     1  UNL1        0.1939
     41 C          59.7384   88.6909    8.1433 C.3     1  UNL1        0.4154
     42 F          60.0965   89.7623    7.1565 F       1  UNL1       -0.1682
     43 F          59.6645   87.6894    7.0291 F       1  UNL1       -0.1682
     44 F          59.8122   89.6924    9.2575 F       1  UNL1       -0.1682
     45 C          63.5164   84.0286   14.0661 C.3     1  UNL1        0.1377
     46 C          63.3202   82.7918   13.2402 C.ar    1  UNL1        0.1390
     47 C          63.4923   82.6878   11.7537 C.ar    1  UNL1        0.0374
     48 C          63.1959   81.2737   11.3506 C.ar    1  UNL1        0.0381
     49 C          63.2036   80.5876   10.0167 C.ar    1  UNL1        0.0032
     50 C          62.8560   79.1316    9.9202 C.ar    1  UNL1        0.0011
     51 C          62.5006   78.3618   11.1575 C.ar    1  UNL1        0.0145
     52 C          62.4929   79.0478   12.4914 C.ar    1  UNL1        0.0921
     53 CL         62.1375   78.2780   13.7287 Cl      1  UNL1       -0.0791
     54 C          62.8405   80.5038   12.5880 C.ar    1  UNL1        0.1553
     55 O          62.9173   81.4420   13.7557 O.2     1  UNL1       -0.4555
@<TRIPOS>BOND
     1     6     7    2
     2     7     8   am
     3    10     8    1
     4    10    11    1
     5    11    12   ar
     6    12    13   ar
     7    13    14   ar
     8    14    15   ar
     9    15    16   ar
    10    16    17    1
    11    17    18    1
    12    18    19    1
    13    19    20    1
    14     7     5    1
    15     5    22    1
    16    22    23    1
    17    23    24   ar
    18    24    25   ar
    19    25    26   ar
    20    26    27   ar
    21    27    28   ar
    22     5     4    1
    23     4     1    1
    24     1     2    1
    25     1    29    1
    26    29    30    1
    27    30    31    1
    28    31    32    1
    29    32    33    1
    30    33    45    1
    31    45    46    1
    32    46    47   ar
    33    47    48   ar
    34    48    49   ar
    35    49    50   ar
    36    50    51   ar
    37    51    52   ar
    38    52    53    1
    39    52    54   ar
    40    54    55   ar
    41    33    34    1
    42    34    35    1
    43    35    36    1
    44    36    37    2
    45    36    38   am
    46    38    40    1
    47    40    41    1
    48    41    42    1
    49    41    43    1
    50    41    44    1
    51    19    10    1
    52    28    23   ar
    53    35    30    1
    54    16    11   ar
    55    55    46   ar
    56    54    48   ar
    57     8     9    1
    58    20    21    1
    59     2     3    1
    60    38    39    1
@<TRIPOS>MOLECULE
*****
 55 60 0 0 0
SMALL
GASTEIGER

@<TRIPOS>ATOM
      1 C          62.3615   86.3644   11.6485 C.3     1  UNL1        0.1269
      2 O          61.8369   85.0875   11.0618 O.3     1  UNL1       -0.3830
      3 H          60.9432   85.2344   10.7144 H       1  UNL1        0.2104
      4 C          63.7325   86.4032   12.2557 C.3     1  UNL1        0.0401
      5 C          63.9031   86.2227   13.7349 C.3     1  UNL1        0.0833
      6 O          63.8013   87.2611   16.1143 O.2     1  UNL1       -0.2751
      7 C          63.9768   87.4217   14.6333 C.2     1  UNL1        0.2226
      8 N          64.2258   88.7813   14.0506 N.am    1  UNL1       -0.2999
      9 H          64.3410   88.8867   13.0786 H       1  UNL1        0.1498
     10 C          64.2995   89.9802   14.9489 C.3     1  UNL1        0.1278
     11 C          65.4645   90.9201   14.8513 C.ar    1  UNL1        0.0320
     12 C          66.5558   90.6610   13.8554 C.ar    1  UNL1        0.0004
     13 C          67.7208   91.6008   13.7579 C.ar    1  UNL1       -0.0001
     14 C          67.7944   92.7998   14.6562 C.ar    1  UNL1        0.0031
     15 C          66.7031   93.0589   15.6520 C.ar    1  UNL1        0.0366
     16 C          65.5381   92.1191   15.7496 C.ar    1  UNL1        0.1362
     17 O          64.4467   92.3783   16.7456 O.3     1  UNL1       -0.4730
     18 C          63.2818   91.4384   16.8431 C.3     1  UNL1        0.2364
     19 C          63.2082   90.2394   15.9448 C.3     1  UNL1        0.1762
     20 O          62.0432   89.2995   16.0423 O.3     1  UNL1       -0.3788
     21 H          61.4338   89.6102   16.7301 H       1  UNL1        0.2106
     22 C          64.0001   84.8432   14.3159 C.3     1  UNL1        0.0371
     23 C          63.6441   83.6503   13.4791 C.ar    1  UNL1       -0.0025
     24 C          64.4871   83.2881   12.2924 C.ar    1  UNL1       -0.0011
     25 C          64.1311   82.0951   11.4556 C.ar    1  UNL1        0.0204
     26 C          62.9322   81.2644   11.8055 C.ar    1  UNL1        0.0989
     27 N          62.0893   81.6265   12.9923 N.ar    1  UNL1       -0.2426
     28 C          62.4452   82.8194   13.8290 C.ar    1  UNL1        0.0946
     29 C          61.5150   87.6026   11.6280 C.3     1  UNL1        0.1021
     30 N          60.8257   88.0191   10.3625 N.3     1  UNL1       -0.2621
     31 C          60.1510   86.9915    9.5029 C.3     1  UNL1        0.0901
     32 C          59.4617   87.4079    8.2374 C.3     1  UNL1        0.0900
     33 N          59.4471   88.8519    7.8315 N.3     1  UNL1       -0.2635
     34 C          60.1219   89.8794    8.6911 C.3     1  UNL1        0.0980
     35 C          60.8111   89.4630    9.9566 C.3     1  UNL1        0.1510
     36 C          61.4859   90.4905   10.8162 C.2     1  UNL1        0.2386
     37 O          60.7015   91.2248   11.8630 O.2     1  UNL1       -0.2736
     38 N          62.9450   90.7838   10.6291 N.am    1  UNL1       -0.2961
     39 H          63.4598   90.3019    9.9421 H       1  UNL1        0.1497
     40 C          63.6197   91.8113   11.4887 C.3     1  UNL1        0.1939
     41 C          64.9930   92.3003   11.1350 C.3     1  UNL1        0.4154
     42 F          66.3662   92.7893   10.7813 F       1  UNL1       -0.1682
     43 F          65.0541   93.0624   12.4255 F       1  UNL1       -0.1682
     44 F          64.9320   91.5383    9.8445 F       1  UNL1       -0.1682
     45 C          58.7579   89.2684    6.5660 C.3     1  UNL1        0.1377
     46 C          59.4460   90.1939    5.6068 C.ar    1  UNL1        0.1390
     47 C          58.8473   91.4178    4.9794 C.ar    1  UNL1        0.0374
     48 C          59.8849   92.0382    4.0915 C.ar    1  UNL1        0.0381
     49 C          59.8609   93.2599    3.2215 C.ar    1  UNL1        0.0032
     50 C          61.0768   93.6411    2.4301 C.ar    1  UNL1        0.0011
     51 C          62.3167   92.8006    2.5087 C.ar    1  UNL1        0.0145
     52 C          62.3408   91.5790    3.3787 C.ar    1  UNL1        0.0921
     53 CL         63.5807   90.7385    3.4574 Cl      1  UNL1       -0.0791
     54 C          61.1249   91.1977    4.1701 C.ar    1  UNL1        0.1553
     55 O          60.8536   90.0579    5.1066 O.2     1  UNL1       -0.4555
@<TRIPOS>BOND
     1     6     7    2
     2     7     8   am
     3    10     8    1
     4    10    11    1
     5    11    12   ar
     6    12    13   ar
     7    13    14   ar
     8    14    15   ar
     9    15    16   ar
    10    16    17    1
    11    17    18    1
    12    18    19    1
    13    19    20    1
    14     7     5    1
    15     5    22    1
    16    22    23    1
    17    23    24   ar
    18    24    25   ar
    19    25    26   ar
    20    26    27   ar
    21    27    28   ar
    22     5     4    1
    23     4     1    1
    24     1     2    1
    25     1    29    1
    26    29    30    1
    27    30    31    1
    28    31    32    1
    29    32    33    1
    30    33    45    1
    31    45    46    1
    32    46    47   ar
    33    47    48   ar
    34    48    49   ar
    35    49    50   ar
    36    50    51   ar
    37    51    52   ar
    38    52    53    1
    39    52    54   ar
    40    54    55   ar
    41    33    34    1
    42    34    35    1
    43    35    36    1
    44    36    37    2
    45    36    38   am
    46    38    40    1
    47    40    41    1
    48    41    42    1
    49    41    43    1
    50    41    44    1
    51    19    10    1
    52    28    23   ar
    53    35    30    1
    54    16    11   ar
    55    55    46   ar
    56    54    48   ar
    57     8     9    1
    58    20    21    1
    59     2     3    1
    60    38    39    1
