@<TRIPOS>MOLECULE
*****
 31 34 0 0 0
SMALL
GASTEIGER

@<TRIPOS>ATOM
      1 N          61.5652   87.5578   11.2577 N.3     1  UNL1       -0.2644
      2 C          62.2298   86.3962   10.5804 C.3     1  UNL1        0.0981
      3 C          62.4878   86.4366    9.1033 C.3     1  UNL1        0.0224
      4 C          63.1523   85.2749    8.4259 C.3     1  UNL1        0.0065
      5 C          63.5589   84.0728    9.2256 C.3     1  UNL1        0.0277
      6 C          63.3009   84.0324   10.7027 C.ar    1  UNL1       -0.0073
      7 C          63.7075   82.8302   11.5025 C.ar    1  UNL1       -0.0015
      8 C          63.4495   82.7898   12.9795 C.ar    1  UNL1        0.0203
      9 C          62.7849   83.9514   13.6569 C.ar    1  UNL1        0.0985
     10 N          62.3783   85.1536   12.8572 N.ar    1  UNL1       -0.2471
     11 C          62.6363   85.1940   11.3800 C.ar    1  UNL1        0.0695
     12 C          60.1594   87.9340   10.8942 C.3     1  UNL1        0.0949
     13 C          59.8519   90.5007   10.6343 C.3     1  UNL1        0.0275
     14 C          59.9036   89.1304   10.0264 C.2     1  UNL1       -0.0309
     15 C          59.6996   88.9565    8.5505 C.2     1  UNL1       -0.0164
     16 C          59.7513   87.5862    7.9425 C.3     1  UNL1        0.0913
     17 N          58.5001   86.7661    7.8343 N.3     1  UNL1       -0.3175
     18 H          58.1691   86.5259    8.7687 H       1  UNL1        0.1192
     19 H          58.6976   85.9116    7.3135 H       1  UNL1        0.1192
     20 C          62.3064   88.3434   12.2986 C.3     1  UNL1        0.0888
     21 C          63.0702   89.5736   11.9071 C.3     1  UNL1        0.0748
     22 C          63.9441   90.2651   12.9111 C.3     1  UNL1        0.0432
     23 C          64.7079   91.4953   12.5196 C.ar    1  UNL1       -0.0234
     24 C          65.5818   92.1868   13.5236 C.ar    1  UNL1       -0.0045
     25 C          66.3455   93.4169   13.1321 C.ar    1  UNL1       -0.0003
     26 C          66.2354   93.9556   11.7365 C.ar    1  UNL1       -0.0003
     27 C          65.3615   93.2642   10.7324 C.ar    1  UNL1       -0.0032
     28 C          64.5978   92.0340   11.1240 C.ar    1  UNL1       -0.0103
     29 C          63.7238   91.3425   10.1199 C.3     1  UNL1        0.0953
     30 N          62.9601   90.1123   10.5115 N.3     1  UNL1       -0.2934
     31 H          63.2606   89.3668    9.8835 H       1  UNL1        0.1236
@<TRIPOS>BOND
     1    13    14    1
     2    14    15    2
     3    15    16    1
     4    16    17    1
     5    14    12    1
     6    12     1    1
     7     1    20    1
     8    21    20    1
     9    21    22    1
    10    22    23    1
    11    23    24   ar
    12    24    25   ar
    13    25    26   ar
    14    26    27   ar
    15    27    28   ar
    16    28    29    1
    17    29    30    1
    18     2     1    1
    19     2     3    1
    20     3     4    1
    21     4     5    1
    22     5     6    1
    23     6     7   ar
    24     7     8   ar
    25     8     9   ar
    26     9    10   ar
    27    10    11   ar
    28    30    21    1
    29    11     2    1
    30    28    23   ar
    31    11     6   ar
    32    17    18    1
    33    17    19    1
    34    30    31    1
@<TRIPOS>MOLECULE
*****
 31 34 0 0 0
SMALL
GASTEIGER

@<TRIPOS>ATOM
      1 N          62.4190   87.0137   11.6259 N.3     1  UNL1       -0.2644
      2 C          62.6592   88.4649   11.3324 C.3     1  UNL1        0.0981
      3 C          62.1863   89.0565   10.0376 C.3     1  UNL1        0.0224
      4 C          62.4264   90.5078    9.7441 C.3     1  UNL1        0.0065
      5 C          63.1395   91.3675   10.7452 C.3     1  UNL1        0.0277
      6 C          63.6124   90.7759   12.0400 C.ar    1  UNL1       -0.0073
      7 C          64.3256   91.6356   13.0412 C.ar    1  UNL1       -0.0015
      8 C          64.7985   91.0440   14.3359 C.ar    1  UNL1        0.0203
      9 C          64.5583   89.5928   14.6295 C.ar    1  UNL1        0.0985
     10 N          63.8452   88.7331   13.6283 N.ar    1  UNL1       -0.2471
     11 C          63.3723   89.3246   12.3335 C.ar    1  UNL1        0.0695
     12 C          61.4435   86.2322   10.7967 C.3     1  UNL1        0.0949
     13 C          63.0537   85.2124    9.0313 C.3     1  UNL1        0.0275
     14 C          61.7664   85.9042    9.3691 C.2     1  UNL1       -0.0309
     15 C          60.8020   86.2681    8.2793 C.2     1  UNL1       -0.0164
     16 C          59.5147   86.9599    8.6172 C.3     1  UNL1        0.0913
     17 N          58.2656   86.6349    7.8530 N.3     1  UNL1       -0.3175
     18 H          58.3719   86.9356    6.8841 H       1  UNL1        0.1192
     19 H          57.4733   87.1196    8.2745 H       1  UNL1        0.1192
     20 C          63.1544   86.3439   12.7486 C.3     1  UNL1        0.0888
     21 C          62.8650   84.9111   13.0855 C.3     1  UNL1        0.0748
     22 C          63.0911   83.8393   12.0608 C.3     1  UNL1        0.0432
     23 C          62.8017   82.4065   12.3976 C.ar    1  UNL1       -0.0234
     24 C          63.0278   81.3347   11.3729 C.ar    1  UNL1       -0.0045
     25 C          62.7383   79.9020   11.7098 C.ar    1  UNL1       -0.0003
     26 C          62.2228   79.5411   13.0714 C.ar    1  UNL1       -0.0003
     27 C          61.9967   80.6129   14.0961 C.ar    1  UNL1       -0.0032
     28 C          62.2861   82.0456   13.7592 C.ar    1  UNL1       -0.0103
     29 C          62.0600   83.1175   14.7840 C.3     1  UNL1        0.0953
     30 N          62.3494   84.5502   14.4471 N.3     1  UNL1       -0.2934
     31 H          63.0425   84.8768   15.1204 H       1  UNL1        0.1236
@<TRIPOS>BOND
     1    13    14    1
     2    14    15    2
     3    15    16    1
     4    16    17    1
     5    14    12    1
     6    12     1    1
     7     1    20    1
     8    21    20    1
     9    21    22    1
    10    22    23    1
    11    23    24   ar
    12    24    25   ar
    13    25    26   ar
    14    26    27   ar
    15    27    28   ar
    16    28    29    1
    17    29    30    1
    18     2     1    1
    19     2     3    1
    20     3     4    1
    21     4     5    1
    22     5     6    1
    23     6     7   ar
    24     7     8   ar
    25     8     9   ar
    26     9    10   ar
    27    10    11   ar
    28    30    21    1
    29    11     2    1
    30    28    23   ar
    31    11     6   ar
    32    17    18    1
    33    17    19    1
    34    30    31    1
@<TRIPOS>MOLECULE
*****
 31 34 0 0 0
SMALL
GASTEIGER

@<TRIPOS>ATOM
      1 N          63.1372   88.8066   12.8095 N.3     1  UNL1       -0.2644
      2 C          63.6193   87.5288   13.4297 C.3     1  UNL1        0.0981
      3 C          64.4440   87.5673   14.6819 C.3     1  UNL1        0.0224
      4 C          64.9261   86.2894   15.3021 C.3     1  UNL1        0.0065
      5 C          64.5834   84.9730   14.6701 C.3     1  UNL1        0.0277
      6 C          63.7587   84.9345   13.4178 C.ar    1  UNL1       -0.0073
      7 C          63.4159   83.6180   12.7856 C.ar    1  UNL1       -0.0015
      8 C          62.5912   83.5795   11.5334 C.ar    1  UNL1        0.0203
      9 C          62.1091   84.8574   10.9132 C.ar    1  UNL1        0.0985
     10 N          62.4518   86.1738   11.5453 N.ar    1  UNL1       -0.2471
     11 C          63.2766   86.2124   12.7976 C.ar    1  UNL1        0.0695
     12 C          62.9738   88.9033   11.3216 C.3     1  UNL1        0.0949
     13 C          63.0354   91.3030   10.3278 C.3     1  UNL1        0.0275
     14 C          62.2624   90.0788   10.7199 C.2     1  UNL1       -0.0309
     15 C          60.7779   90.0301   10.5104 C.2     1  UNL1       -0.0164
     16 C          60.0048   88.8060   10.9025 C.3     1  UNL1        0.0913
     17 N          59.4174   88.6987   12.2785 N.3     1  UNL1       -0.3175
     18 H          60.1691   88.6536   12.9665 H       1  UNL1        0.1192
     19 H          58.8486   87.8544   12.3406 H       1  UNL1        0.1192
     20 C          62.8184   89.9879   13.6772 C.3     1  UNL1        0.0888
     21 C          63.9252   90.7456   14.3488 C.3     1  UNL1        0.0748
     22 C          65.2563   90.8861   13.6718 C.3     1  UNL1        0.0432
     23 C          66.3631   91.6439   14.3434 C.ar    1  UNL1       -0.0234
     24 C          67.6942   91.7844   13.6664 C.ar    1  UNL1       -0.0045
     25 C          68.8009   92.5421   14.3380 C.ar    1  UNL1       -0.0003
     26 C          68.5765   93.1592   15.6866 C.ar    1  UNL1       -0.0003
     27 C          67.2454   93.0186   16.3637 C.ar    1  UNL1       -0.0032
     28 C          66.1387   92.2610   15.6920 C.ar    1  UNL1       -0.0103
     29 C          64.8075   92.1204   16.3691 C.3     1  UNL1        0.0953
     30 N          63.7008   91.3627   15.6975 N.3     1  UNL1       -0.2934
     31 H          62.9186   92.0099   15.5987 H       1  UNL1        0.1236
@<TRIPOS>BOND
     1    13    14    1
     2    14    15    2
     3    15    16    1
     4    16    17    1
     5    14    12    1
     6    12     1    1
     7     1    20    1
     8    21    20    1
     9    21    22    1
    10    22    23    1
    11    23    24   ar
    12    24    25   ar
    13    25    26   ar
    14    26    27   ar
    15    27    28   ar
    16    28    29    1
    17    29    30    1
    18     2     1    1
    19     2     3    1
    20     3     4    1
    21     4     5    1
    22     5     6    1
    23     6     7   ar
    24     7     8   ar
    25     8     9   ar
    26     9    10   ar
    27    10    11   ar
    28    30    21    1
    29    11     2    1
    30    28    23   ar
    31    11     6   ar
    32    17    18    1
    33    17    19    1
    34    30    31    1
@<TRIPOS>MOLECULE
*****
 31 34 0 0 0
SMALL
GASTEIGER

@<TRIPOS>ATOM
      1 N          62.3211   86.9597   11.3236 N.3     1  UNL1       -0.2644
      2 C          62.5916   88.4313   11.2183 C.3     1  UNL1        0.0981
      3 C          62.1465   89.1906   10.0036 C.3     1  UNL1        0.0224
      4 C          62.4170   90.6623    9.8982 C.3     1  UNL1        0.0065
      5 C          63.1325   91.3746   11.0075 C.3     1  UNL1        0.0277
      6 C          63.5775   90.6154   12.2221 C.ar    1  UNL1       -0.0073
      7 C          64.2931   91.3278   13.3315 C.ar    1  UNL1       -0.0015
      8 C          64.7382   90.5685   14.5461 C.ar    1  UNL1        0.0203
      9 C          64.4677   89.0969   14.6515 C.ar    1  UNL1        0.0985
     10 N          63.7522   88.3845   13.5422 N.ar    1  UNL1       -0.2471
     11 C          63.3071   89.1437   12.3275 C.ar    1  UNL1        0.0695
     12 C          61.2929   86.3208   10.4379 C.3     1  UNL1        0.0949
     13 C          62.9510   85.5579    8.5890 C.3     1  UNL1        0.0275
     14 C          61.6002   86.0712    8.9911 C.2     1  UNL1       -0.0309
     15 C          60.5565   86.3348    7.9464 C.2     1  UNL1       -0.0164
     16 C          59.2057   86.8480    8.3486 C.3     1  UNL1        0.0913
     17 N          58.5068   87.8668    7.4980 N.3     1  UNL1       -0.3175
     18 H          59.0328   88.7406    7.5129 H       1  UNL1        0.1192
     19 H          57.5683   88.0286    7.8633 H       1  UNL1        0.1192
     20 C          63.0789   86.1270   12.3147 C.3     1  UNL1        0.0888
     21 C          63.0340   84.6302   12.2266 C.3     1  UNL1        0.0748
     22 C          62.3351   83.8368   13.2906 C.3     1  UNL1        0.0432
     23 C          62.2902   82.3401   13.2024 C.ar    1  UNL1       -0.0234
     24 C          61.5913   81.5467   14.2664 C.ar    1  UNL1       -0.0045
     25 C          61.5465   80.0500   14.1782 C.ar    1  UNL1       -0.0003
     26 C          62.2005   79.3467   13.0261 C.ar    1  UNL1       -0.0003
     27 C          62.8994   80.1400   11.9620 C.ar    1  UNL1       -0.0032
     28 C          62.9442   81.6367   12.0502 C.ar    1  UNL1       -0.0103
     29 C          63.6431   82.4301   10.9862 C.3     1  UNL1        0.0953
     30 N          63.6880   83.9268   11.0744 N.3     1  UNL1       -0.2934
     31 H          63.2518   84.2850   10.2248 H       1  UNL1        0.1236
@<TRIPOS>BOND
     1    13    14    1
     2    14    15    2
     3    15    16    1
     4    16    17    1
     5    14    12    1
     6    12     1    1
     7     1    20    1
     8    21    20    1
     9    21    22    1
    10    22    23    1
    11    23    24   ar
    12    24    25   ar
    13    25    26   ar
    14    26    27   ar
    15    27    28   ar
    16    28    29    1
    17    29    30    1
    18     2     1    1
    19     2     3    1
    20     3     4    1
    21     4     5    1
    22     5     6    1
    23     6     7   ar
    24     7     8   ar
    25     8     9   ar
    26     9    10   ar
    27    10    11   ar
    28    30    21    1
    29    11     2    1
    30    28    23   ar
    31    11     6   ar
    32    17    18    1
    33    17    19    1
    34    30    31    1
@<TRIPOS>MOLECULE
*****
 31 34 0 0 0
SMALL
GASTEIGER

@<TRIPOS>ATOM
      1 N          63.5001   88.2542   13.4249 N.3     1  UNL1       -0.2644
      2 C          62.8607   87.4641   12.3218 C.3     1  UNL1        0.0981
      3 C          63.0903   85.9847   12.2285 C.3     1  UNL1        0.0224
      4 C          62.4509   85.1946   11.1254 C.3     1  UNL1        0.0065
      5 C          61.5819   85.8838   10.1156 C.3     1  UNL1        0.0277
      6 C          61.3522   87.3632   10.2089 C.ar    1  UNL1       -0.0073
      7 C          60.4831   88.0525    9.1991 C.ar    1  UNL1       -0.0015
      8 C          60.2535   89.5318    9.2925 C.ar    1  UNL1        0.0203
      9 C          60.8929   90.3219   10.3956 C.ar    1  UNL1        0.0985
     10 N          61.7620   89.6327   11.4053 N.ar    1  UNL1       -0.2471
     11 C          61.9916   88.1533   11.3120 C.ar    1  UNL1        0.0695
     12 C          64.3639   87.5640   14.4385 C.3     1  UNL1        0.0949
     13 C          63.1692   88.0739   16.6885 C.3     1  UNL1        0.0275
     14 C          63.7694   87.0879   15.7308 C.2     1  UNL1       -0.0309
     15 C          63.7751   85.6256   16.0652 C.2     1  UNL1       -0.0164
     16 C          64.3752   84.6395   15.1074 C.3     1  UNL1        0.0913
     17 N          64.2714   83.1686   15.3823 N.3     1  UNL1       -0.3175
     18 H          64.8070   82.9406   16.2199 H       1  UNL1        0.1192
     19 H          64.6436   82.6473   14.5885 H       1  UNL1        0.1192
     20 C          63.2758   89.7346   13.5144 C.3     1  UNL1        0.0888
     21 C          64.2721   90.6026   14.2244 C.3     1  UNL1        0.0748
     22 C          65.6490   90.7824   13.6572 C.3     1  UNL1        0.0432
     23 C          66.6453   91.6503   14.3673 C.ar    1  UNL1       -0.0234
     24 C          68.0221   91.8301   13.8000 C.ar    1  UNL1       -0.0045
     25 C          69.0183   92.6981   14.5101 C.ar    1  UNL1       -0.0003
     26 C          68.6376   93.3862   15.7874 C.ar    1  UNL1       -0.0003
     27 C          67.2608   93.2065   16.3546 C.ar    1  UNL1       -0.0032
     28 C          66.2646   92.3385   15.6445 C.ar    1  UNL1       -0.0103
     29 C          64.8876   92.1587   16.2118 C.3     1  UNL1        0.0953
     30 N          63.8914   91.2908   15.5017 N.3     1  UNL1       -0.2934
     31 H          63.0858   91.8796   15.2902 H       1  UNL1        0.1236
@<TRIPOS>BOND
     1    13    14    1
     2    14    15    2
     3    15    16    1
     4    16    17    1
     5    14    12    1
     6    12     1    1
     7     1    20    1
     8    21    20    1
     9    21    22    1
    10    22    23    1
    11    23    24   ar
    12    24    25   ar
    13    25    26   ar
    14    26    27   ar
    15    27    28   ar
    16    28    29    1
    17    29    30    1
    18     2     1    1
    19     2     3    1
    20     3     4    1
    21     4     5    1
    22     5     6    1
    23     6     7   ar
    24     7     8   ar
    25     8     9   ar
    26     9    10   ar
    27    10    11   ar
    28    30    21    1
    29    11     2    1
    30    28    23   ar
    31    11     6   ar
    32    17    18    1
    33    17    19    1
    34    30    31    1
@<TRIPOS>MOLECULE
*****
 31 34 0 0 0
SMALL
GASTEIGER

@<TRIPOS>ATOM
      1 N          62.1953   88.0189   11.9247 N.3     1  UNL1       -0.2644
      2 C          63.1047   88.9432   12.6789 C.3     1  UNL1        0.0981
      3 C          63.4924   88.6253   14.0926 C.3     1  UNL1        0.0224
      4 C          64.4017   89.5496   14.8468 C.3     1  UNL1        0.0065
      5 C          64.9234   90.7917   14.1873 C.3     1  UNL1        0.0277
      6 C          64.5357   91.1095   12.7736 C.ar    1  UNL1       -0.0073
      7 C          65.0574   92.3517   12.1140 C.ar    1  UNL1       -0.0015
      8 C          64.6696   92.6696   10.7003 C.ar    1  UNL1        0.0203
      9 C          63.7603   91.7453    9.9461 C.ar    1  UNL1        0.0985
     10 N          63.2386   90.5032   10.6056 N.ar    1  UNL1       -0.2471
     11 C          63.6263   90.1853   12.0194 C.ar    1  UNL1        0.0695
     12 C          60.7281   88.3176   11.8361 C.3     1  UNL1        0.0949
     13 C          59.9639   90.6744   11.0543 C.3     1  UNL1        0.0275
     14 C          60.2109   89.2246   10.7592 C.2     1  UNL1       -0.0309
     15 C          59.9408   88.6819    9.3871 C.2     1  UNL1       -0.0164
     16 C          60.1879   87.2321    9.0920 C.3     1  UNL1        0.0913
     17 N          59.2580   86.4824    8.1848 N.3     1  UNL1       -0.3175
     18 H          58.3388   86.4135    8.6217 H       1  UNL1        0.1192
     19 H          59.6265   85.5460    8.0187 H       1  UNL1        0.1192
     20 C          62.7533   86.7960   11.2590 C.3     1  UNL1        0.0888
     21 C          62.6905   85.4686   11.9549 C.3     1  UNL1        0.0748
     22 C          62.8494   84.2013   11.1684 C.3     1  UNL1        0.0432
     23 C          62.7866   82.8739   11.8643 C.ar    1  UNL1       -0.0234
     24 C          62.9455   81.6065   11.0778 C.ar    1  UNL1       -0.0045
     25 C          62.8827   80.2792   11.7737 C.ar    1  UNL1       -0.0003
     26 C          62.6611   80.2193   13.2560 C.ar    1  UNL1       -0.0003
     27 C          62.5022   81.4866   14.0425 C.ar    1  UNL1       -0.0032
     28 C          62.5650   82.8139   13.3466 C.ar    1  UNL1       -0.0103
     29 C          62.4061   84.0814   14.1331 C.3     1  UNL1        0.0953
     30 N          62.4689   85.4087   13.4372 N.3     1  UNL1       -0.2934
     31 H          63.2296   85.9324   13.8700 H       1  UNL1        0.1236
@<TRIPOS>BOND
     1    13    14    1
     2    14    15    2
     3    15    16    1
     4    16    17    1
     5    14    12    1
     6    12     1    1
     7     1    20    1
     8    21    20    1
     9    21    22    1
    10    22    23    1
    11    23    24   ar
    12    24    25   ar
    13    25    26   ar
    14    26    27   ar
    15    27    28   ar
    16    28    29    1
    17    29    30    1
    18     2     1    1
    19     2     3    1
    20     3     4    1
    21     4     5    1
    22     5     6    1
    23     6     7   ar
    24     7     8   ar
    25     8     9   ar
    26     9    10   ar
    27    10    11   ar
    28    30    21    1
    29    11     2    1
    30    28    23   ar
    31    11     6   ar
    32    17    18    1
    33    17    19    1
    34    30    31    1
@<TRIPOS>MOLECULE
*****
 31 34 0 0 0
SMALL
GASTEIGER

@<TRIPOS>ATOM
      1 N          63.0989   90.4204   11.7052 N.3     1  UNL1       -0.2644
      2 C          64.1831   91.4570   11.6967 C.3     1  UNL1        0.0981
      3 C          64.6086   92.0867   10.4036 C.3     1  UNL1        0.0224
      4 C          65.6928   93.1232   10.3951 C.3     1  UNL1        0.0065
      5 C          66.3515   93.5300   11.6798 C.3     1  UNL1        0.0277
      6 C          65.9260   92.9003   12.9730 C.ar    1  UNL1       -0.0073
      7 C          66.5847   93.3071   14.2578 C.ar    1  UNL1       -0.0015
      8 C          66.1593   92.6774   15.5510 C.ar    1  UNL1        0.0203
      9 C          65.0751   91.6409   15.5594 C.ar    1  UNL1        0.0985
     10 N          64.4163   91.2340   14.2747 N.ar    1  UNL1       -0.2471
     11 C          64.8418   91.8638   12.9814 C.ar    1  UNL1        0.0695
     12 C          62.3753   90.0816   10.4358 C.3     1  UNL1        0.0949
     13 C          59.9701   90.7620   11.1445 C.3     1  UNL1        0.0275
     14 C          60.9016   89.8033   10.4638 C.2     1  UNL1       -0.0309
     15 C          60.3593   88.5663    9.8112 C.2     1  UNL1       -0.0164
     16 C          61.2907   87.6076    9.1306 C.3     1  UNL1        0.0913
     17 N          60.8528   86.1980    8.8640 N.3     1  UNL1       -0.3175
     18 H          60.7221   85.7093    9.7498 H       1  UNL1        0.1192
     19 H          61.5652   85.7190    8.3133 H       1  UNL1        0.1192
     20 C          62.7383   89.7227   12.9831 C.3     1  UNL1        0.0888
     21 C          63.1863   88.3107   13.2190 C.3     1  UNL1        0.0748
     22 C          62.7644   87.2227   12.2766 C.3     1  UNL1        0.0432
     23 C          63.2124   85.8106   12.5125 C.ar    1  UNL1       -0.0234
     24 C          62.7905   84.7226   11.5701 C.ar    1  UNL1       -0.0045
     25 C          63.2385   83.3107   11.8060 C.ar    1  UNL1       -0.0003
     26 C          64.1085   82.9868   12.9843 C.ar    1  UNL1       -0.0003
     27 C          64.5304   84.0748   13.9267 C.ar    1  UNL1       -0.0032
     28 C          64.0823   85.4868   13.6908 C.ar    1  UNL1       -0.0103
     29 C          64.5042   86.5749   14.6332 C.3     1  UNL1        0.0953
     30 N          64.0562   87.9868   14.3973 N.3     1  UNL1       -0.2934
     31 H          64.9002   88.5519   14.3043 H       1  UNL1        0.1236
@<TRIPOS>BOND
     1    13    14    1
     2    14    15    2
     3    15    16    1
     4    16    17    1
     5    14    12    1
     6    12     1    1
     7     1    20    1
     8    21    20    1
     9    21    22    1
    10    22    23    1
    11    23    24   ar
    12    24    25   ar
    13    25    26   ar
    14    26    27   ar
    15    27    28   ar
    16    28    29    1
    17    29    30    1
    18     2     1    1
    19     2     3    1
    20     3     4    1
    21     4     5    1
    22     5     6    1
    23     6     7   ar
    24     7     8   ar
    25     8     9   ar
    26     9    10   ar
    27    10    11   ar
    28    30    21    1
    29    11     2    1
    30    28    23   ar
    31    11     6   ar
    32    17    18    1
    33    17    19    1
    34    30    31    1
@<TRIPOS>MOLECULE
*****
 31 34 0 0 0
SMALL
GASTEIGER

@<TRIPOS>ATOM
      1 N          62.0459   87.5297   11.1557 N.3     1  UNL1       -0.2644
      2 C          61.1065   87.2327   10.0247 C.3     1  UNL1        0.0981
      3 C          59.7319   87.8329   10.0142 C.3     1  UNL1        0.0224
      4 C          58.7924   87.5359    8.8832 C.3     1  UNL1        0.0065
      5 C          59.2276   86.6387    7.7626 C.3     1  UNL1        0.0277
      6 C          60.6022   86.0385    7.7731 C.ar    1  UNL1       -0.0073
      7 C          61.0374   85.1413    6.6525 C.ar    1  UNL1       -0.0015
      8 C          62.4121   84.5411    6.6630 C.ar    1  UNL1        0.0203
      9 C          63.3515   84.8381    7.7940 C.ar    1  UNL1        0.0985
     10 N          62.9163   85.7353    8.9146 N.ar    1  UNL1       -0.2471
     11 C          61.5417   86.3355    8.9041 C.ar    1  UNL1        0.0695
     12 C          61.8684   88.7765   11.9704 C.3     1  UNL1        0.0949
     13 C          62.7811   90.7209   10.5088 C.3     1  UNL1        0.0275
     14 C          62.8053   89.9332   11.7851 C.2     1  UNL1       -0.0309
     15 C          63.7663   90.3022   12.8761 C.2     1  UNL1       -0.0164
     16 C          63.7905   89.5146   14.1524 C.3     1  UNL1        0.0913
     17 N          62.8369   89.8518   15.2600 N.3     1  UNL1       -0.3175
     18 H          63.0557   90.7780   15.6269 H       1  UNL1        0.1192
     19 H          62.9241   89.1614   16.0057 H       1  UNL1        0.1192
     20 C          63.1629   86.5798   11.4720 C.3     1  UNL1        0.0888
     21 C          62.8753   85.2991   12.1982 C.3     1  UNL1        0.0748
     22 C          63.0318   83.9851   11.4920 C.3     1  UNL1        0.0432
     23 C          62.7442   82.7044   12.2181 C.ar    1  UNL1       -0.0234
     24 C          62.9007   81.3904   11.5119 C.ar    1  UNL1       -0.0045
     25 C          62.6132   80.1098   12.2380 C.ar    1  UNL1       -0.0003
     26 C          62.1691   80.1432   13.6704 C.ar    1  UNL1       -0.0003
     27 C          62.0127   81.4572   14.3766 C.ar    1  UNL1       -0.0032
     28 C          62.3002   82.7378   13.6505 C.ar    1  UNL1       -0.0103
     29 C          62.1437   84.0519   14.3567 C.3     1  UNL1        0.0953
     30 N          62.4313   85.3325   13.6306 N.3     1  UNL1       -0.2934
     31 H          63.1642   85.8102   14.1550 H       1  UNL1        0.1236
@<TRIPOS>BOND
     1    13    14    1
     2    14    15    2
     3    15    16    1
     4    16    17    1
     5    14    12    1
     6    12     1    1
     7     1    20    1
     8    21    20    1
     9    21    22    1
    10    22    23    1
    11    23    24   ar
    12    24    25   ar
    13    25    26   ar
    14    26    27   ar
    15    27    28   ar
    16    28    29    1
    17    29    30    1
    18     2     1    1
    19     2     3    1
    20     3     4    1
    21     4     5    1
    22     5     6    1
    23     6     7   ar
    24     7     8   ar
    25     8     9   ar
    26     9    10   ar
    27    10    11   ar
    28    30    21    1
    29    11     2    1
    30    28    23   ar
    31    11     6   ar
    32    17    18    1
    33    17    19    1
    34    30    31    1
@<TRIPOS>MOLECULE
*****
 31 34 0 0 0
SMALL
GASTEIGER

@<TRIPOS>ATOM
      1 N          62.0130   86.2828   11.8904 N.3     1  UNL1       -0.2644
      2 C          62.1633   85.8242   10.4701 C.3     1  UNL1        0.0981
      3 C          63.3252   84.9595   10.0802 C.3     1  UNL1        0.0224
      4 C          63.4755   84.5008    8.6600 C.3     1  UNL1        0.0065
      5 C          62.4639   84.9070    7.6296 C.3     1  UNL1        0.0277
      6 C          61.3020   85.7718    8.0195 C.ar    1  UNL1       -0.0073
      7 C          60.2903   86.1780    6.9892 C.ar    1  UNL1       -0.0015
      8 C          59.1284   87.0428    7.3791 C.ar    1  UNL1        0.0203
      9 C          58.9781   87.5014    8.7993 C.ar    1  UNL1        0.0985
     10 N          59.9897   87.0952    9.8297 N.ar    1  UNL1       -0.2471
     11 C          61.1517   86.2304    9.4398 C.ar    1  UNL1        0.0695
     12 C          62.3840   85.3658   13.0179 C.3     1  UNL1        0.0949
     13 C          64.2255   86.6857   14.2893 C.3     1  UNL1        0.0275
     14 C          63.7584   85.4297   13.6154 C.2     1  UNL1       -0.0309
     15 C          64.6657   84.2376   13.5389 C.2     1  UNL1       -0.0164
     16 C          64.1986   82.9816   12.8650 C.3     1  UNL1        0.0913
     17 N          65.0105   82.3783   11.7574 N.3     1  UNL1       -0.3175
     18 H          65.0156   83.0100   10.9566 H       1  UNL1        0.1192
     19 H          64.6012   81.4852   11.4834 H       1  UNL1        0.1192
     20 C          61.4916   87.6585   12.1831 C.3     1  UNL1        0.0888
     21 C          62.3080   88.8631   11.8191 C.3     1  UNL1        0.0748
     22 C          63.2285   89.4789   12.8307 C.3     1  UNL1        0.0432
     23 C          64.0448   90.6836   12.4667 C.ar    1  UNL1       -0.0234
     24 C          64.9653   91.2994   13.4784 C.ar    1  UNL1       -0.0045
     25 C          65.7816   92.5040   13.1143 C.ar    1  UNL1       -0.0003
     26 C          65.6774   93.0928   11.7387 C.ar    1  UNL1       -0.0003
     27 C          64.7569   92.4770   10.7270 C.ar    1  UNL1       -0.0032
     28 C          63.9406   91.2724   11.0911 C.ar    1  UNL1       -0.0103
     29 C          63.0201   90.6565   10.0794 C.3     1  UNL1        0.0953
     30 N          62.2038   89.4519   10.4434 N.3     1  UNL1       -0.2934
     31 H          62.4591   88.7140    9.7872 H       1  UNL1        0.1236
@<TRIPOS>BOND
     1    13    14    1
     2    14    15    2
     3    15    16    1
     4    16    17    1
     5    14    12    1
     6    12     1    1
     7     1    20    1
     8    21    20    1
     9    21    22    1
    10    22    23    1
    11    23    24   ar
    12    24    25   ar
    13    25    26   ar
    14    26    27   ar
    15    27    28   ar
    16    28    29    1
    17    29    30    1
    18     2     1    1
    19     2     3    1
    20     3     4    1
    21     4     5    1
    22     5     6    1
    23     6     7   ar
    24     7     8   ar
    25     8     9   ar
    26     9    10   ar
    27    10    11   ar
    28    30    21    1
    29    11     2    1
    30    28    23   ar
    31    11     6   ar
    32    17    18    1
    33    17    19    1
    34    30    31    1
