@<TRIPOS>MOLECULE
*****
 39 43 0 0 0
SMALL
GASTEIGER

@<TRIPOS>ATOM
      1 N          63.8816   89.2869   15.4695 N.ar    1  UNL1       -0.2715
      2 C          63.3846   89.8636   16.7619 C.ar    1  UNL1        0.2649
      3 O          63.4405   91.3447   16.9930 O.2     1  UNL1       -0.2666
      4 C          62.8317   88.9593   17.8232 C.ar    1  UNL1        0.0611
      5 C          62.7757   87.4783   17.5922 C.ar    1  UNL1        0.0064
      6 C          63.2727   86.9015   16.2997 C.ar    1  UNL1        0.0177
      7 C          63.2168   85.4205   16.0687 C.ar    1  UNL1        0.0216
      8 C          63.7138   84.8438   14.7763 C.ar    1  UNL1        0.1253
      9 C          64.2667   85.7481   13.7149 C.ar    1  UNL1        0.0217
     10 C          64.3227   87.2291   13.9459 C.ar    1  UNL1        0.0190
     11 C          63.8257   87.8058   15.2384 C.ar    1  UNL1        0.0670
     12 C          63.6245   90.4913   13.1818 C.ar    1  UNL1        0.1549
     13 C          64.1775   91.3956   12.1205 C.ar    1  UNL1        0.0406
     14 C          65.5404   91.9998   12.2854 C.ar    1  UNL1        0.0306
     15 C          66.3505   91.6997   13.5117 C.ar    1  UNL1        0.1417
     16 F          67.7135   92.3040   13.6766 F       1  UNL1       -0.2041
     17 C          65.7976   90.7954   14.5731 C.ar    1  UNL1        0.0503
     18 C          64.4345   90.1912   14.4081 C.ar    1  UNL1        0.1029
     19 C          66.0934   92.9041   11.2240 C.ar    1  UNL1        0.0020
     20 C          67.1730   92.4113   10.3066 C.ar    1  UNL1        0.0009
     21 C          67.7259   93.3156    9.2453 C.ar    1  UNL1        0.0111
     22 C          67.1992   94.7128    9.1013 C.ar    1  UNL1        0.0537
     23 CL         67.7522   95.6171    8.0400 Cl      1  UNL1       -0.0826
     24 C          66.1197   95.2055   10.0187 C.ar    1  UNL1       -0.0113
     25 C          65.5930   96.6027    9.8748 C.3     1  UNL1        0.0319
     26 C          65.5667   94.3012   11.0801 C.ar    1  UNL1       -0.0034
     27 C          61.6775   89.7169   11.6458 C.3     1  UNL1        0.2525
     28 O          62.2615   89.8871   13.0169 O.3     1  UNL1       -0.4700
     29 S          63.6579   83.3627   14.5451 S.O2    1  UNL1        0.0758
     30 O          65.1548   83.3194   14.4607 O.2     1  UNL1       -0.1499
     31 O          62.1609   83.4060   14.6296 O.2     1  UNL1       -0.1499
     32 N          63.6020   81.8817   14.3140 N.pl3   1  UNL1       -0.1835
     33 H          63.6942   81.2613   15.0729 H       1  UNL1        0.1767
     34 C          63.4056   81.3459   12.9268 C.ar    1  UNL1        0.2360
     35 N          62.8109   79.9836   12.7261 N.ar    1  UNL1       -0.2110
     36 C          62.6146   79.4479   11.3389 C.ar    1  UNL1        0.1035
     37 C          63.0130   80.2746   10.1523 C.ar    1  UNL1        0.0414
     38 C          63.6078   81.6369   10.3530 C.ar    1  UNL1        0.1035
     39 N          63.8041   82.1726   11.7402 N.ar    1  UNL1       -0.2110
@<TRIPOS>BOND
     1    27    28    1
     2    28    12    1
     3    12    13   ar
     4    13    14   ar
     5    14    19    1
     6    19    20   ar
     7    20    21   ar
     8    21    22   ar
     9    22    23    1
    10    22    24   ar
    11    24    25    1
    12    24    26   ar
    13    14    15   ar
    14    15    16    1
    15    15    17   ar
    16    17    18   ar
    17    18     1    1
    18     1     2   ar
    19     2     3    2
    20     2     4   ar
    21     4     5   ar
    22     5     6   ar
    23     6     7   ar
    24     7     8   ar
    25     8    29    1
    26    29    30    2
    27    29    31    2
    28    29    32    1
    29    32    34    1
    30    34    35   ar
    31    35    36   ar
    32    36    37   ar
    33    37    38   ar
    34    38    39   ar
    35     8     9   ar
    36     9    10   ar
    37    10    11   ar
    38    18    12   ar
    39    11     1   ar
    40    26    19   ar
    41    11     6   ar
    42    39    34   ar
    43    32    33    1
@<TRIPOS>MOLECULE
*****
 39 43 0 0 0
SMALL
GASTEIGER

@<TRIPOS>ATOM
      1 N          63.9922   89.8396   15.2477 N.ar    1  UNL1       -0.2715
      2 C          63.5394   90.4682   16.5321 C.ar    1  UNL1        0.2649
      3 O          63.6122   91.9565   16.7052 O.2     1  UNL1       -0.2666
      4 C          63.0136   89.6087   17.6433 C.ar    1  UNL1        0.0611
      5 C          62.9407   88.1206   17.4702 C.ar    1  UNL1        0.0064
      6 C          63.3936   87.4918   16.1858 C.ar    1  UNL1        0.0177
      7 C          63.3207   86.0037   16.0127 C.ar    1  UNL1        0.0216
      8 C          63.7736   85.3750   14.7283 C.ar    1  UNL1        0.1253
      9 C          64.2994   86.2345   13.6171 C.ar    1  UNL1        0.0217
     10 C          64.3722   87.7226   13.7902 C.ar    1  UNL1        0.0190
     11 C          63.9194   88.3513   15.0746 C.ar    1  UNL1        0.0670
     12 C          65.8244   91.4181   14.2983 C.ar    1  UNL1        0.1549
     13 C          66.3501   92.2776   13.1871 C.ar    1  UNL1        0.0406
     14 C          65.5695   92.4180   11.9140 C.ar    1  UNL1        0.0306
     15 C          64.2630   91.6989   11.7521 C.ar    1  UNL1        0.1417
     16 F          63.4824   91.8393   10.4790 F       1  UNL1       -0.2041
     17 C          63.7373   90.8394   12.8633 C.ar    1  UNL1        0.0503
     18 C          64.5180   90.6990   14.1365 C.ar    1  UNL1        0.1029
     19 C          66.0952   93.2775   10.8027 C.ar    1  UNL1        0.0020
     20 C          67.2086   92.7777    9.9305 C.ar    1  UNL1        0.0009
     21 C          67.7344   93.6371    8.8193 C.ar    1  UNL1        0.0111
     22 C          67.1468   94.9964    8.5802 C.ar    1  UNL1        0.0537
     23 CL         67.6725   95.8559    7.4690 Cl      1  UNL1       -0.0826
     24 C          66.0334   95.4962    9.4524 C.ar    1  UNL1       -0.0113
     25 C          65.4458   96.8555    9.2133 C.3     1  UNL1        0.0319
     26 C          65.5077   94.6367   10.5636 C.ar    1  UNL1       -0.0034
     27 C          67.0499   92.5008   16.3172 C.3     1  UNL1        0.2525
     28 O          66.6051   91.2777   15.5715 O.3     1  UNL1       -0.4700
     29 S          63.7007   83.8867   14.5552 S.O2    1  UNL1        0.0758
     30 O          62.4737   84.0455   13.7072 O.2     1  UNL1       -0.1499
     31 O          64.9277   83.7279   15.4032 O.2     1  UNL1       -0.1499
     32 N          63.6278   82.3986   14.3820 N.pl3   1  UNL1       -0.1835
     33 H          63.6737   81.8086   15.1688 H       1  UNL1        0.1767
     34 C          63.4850   81.8093   13.0100 C.ar    1  UNL1        0.2360
     35 N          64.0298   82.5407   11.8191 N.ar    1  UNL1       -0.2110
     36 C          63.8870   81.9513   10.4472 C.ar    1  UNL1        0.1035
     37 C          63.1993   80.6306   10.2661 C.ar    1  UNL1        0.0414
     38 C          62.6545   79.8992   11.4570 C.ar    1  UNL1        0.1035
     39 N          62.7973   80.4885   12.8289 N.ar    1  UNL1       -0.2110
@<TRIPOS>BOND
     1    27    28    1
     2    28    12    1
     3    12    13   ar
     4    13    14   ar
     5    14    19    1
     6    19    20   ar
     7    20    21   ar
     8    21    22   ar
     9    22    23    1
    10    22    24   ar
    11    24    25    1
    12    24    26   ar
    13    14    15   ar
    14    15    16    1
    15    15    17   ar
    16    17    18   ar
    17    18     1    1
    18     1     2   ar
    19     2     3    2
    20     2     4   ar
    21     4     5   ar
    22     5     6   ar
    23     6     7   ar
    24     7     8   ar
    25     8    29    1
    26    29    30    2
    27    29    31    2
    28    29    32    1
    29    32    34    1
    30    34    35   ar
    31    35    36   ar
    32    36    37   ar
    33    37    38   ar
    34    38    39   ar
    35     8     9   ar
    36     9    10   ar
    37    10    11   ar
    38    18    12   ar
    39    11     1   ar
    40    26    19   ar
    41    11     6   ar
    42    39    34   ar
    43    32    33    1
@<TRIPOS>MOLECULE
*****
 39 43 0 0 0
SMALL
GASTEIGER

@<TRIPOS>ATOM
      1 N          63.9748   89.2951   14.9042 N.ar    1  UNL1       -0.2715
      2 C          63.4860   89.4485   16.3140 C.ar    1  UNL1        0.2649
      3 O          62.8807   88.2773   17.0295 O.2     1  UNL1       -0.2666
      4 C          63.6023   90.7731   17.0082 C.ar    1  UNL1        0.0611
      5 C          64.2076   91.9442   16.2927 C.ar    1  UNL1        0.0064
      6 C          64.6965   91.7909   14.8829 C.ar    1  UNL1        0.0177
      7 C          65.3017   92.9621   14.1674 C.ar    1  UNL1        0.0216
      8 C          65.7906   92.8087   12.7576 C.ar    1  UNL1        0.1253
      9 C          65.6742   91.4841   12.0634 C.ar    1  UNL1        0.0217
     10 C          65.0689   90.3129   12.7789 C.ar    1  UNL1        0.0190
     11 C          64.5801   90.4663   14.1886 C.ar    1  UNL1        0.0670
     12 C          63.0249   87.8448   12.9693 C.ar    1  UNL1        0.1549
     13 C          62.9085   86.5202   12.2750 C.ar    1  UNL1        0.0406
     14 C          63.6256   85.3214   12.8214 C.ar    1  UNL1        0.0306
     15 C          64.4592   85.4472   14.0622 C.ar    1  UNL1        0.1417
     16 F          65.1763   84.2484   14.6086 F       1  UNL1       -0.2041
     17 C          64.5756   86.7717   14.7565 C.ar    1  UNL1        0.0503
     18 C          63.8584   87.9706   14.2099 C.ar    1  UNL1        0.1029
     19 C          63.5092   83.9969   12.1272 C.ar    1  UNL1        0.0020
     20 C          63.9075   83.8675   10.6868 C.ar    1  UNL1        0.0009
     21 C          63.7911   82.5429    9.9925 C.ar    1  UNL1        0.0111
     22 C          63.2764   81.3477   10.7387 C.ar    1  UNL1        0.0537
     23 CL         63.1600   80.0232   10.0444 Cl      1  UNL1       -0.0826
     24 C          62.8782   81.4771   12.1790 C.ar    1  UNL1       -0.0113
     25 C          62.3635   80.2819   12.9252 C.3     1  UNL1        0.0319
     26 C          62.9946   82.8017   12.8733 C.ar    1  UNL1       -0.0034
     27 C          62.1382   89.2052   10.9412 C.3     1  UNL1        0.2525
     28 O          62.3077   89.0436   12.4227 O.3     1  UNL1       -0.4700
     29 S          66.3958   93.9799   12.0420 S.O2    1  UNL1        0.0758
     30 O          66.3766   93.2051   10.7578 O.2     1  UNL1       -0.1499
     31 O          66.4150   94.7547   13.3263 O.2     1  UNL1       -0.1499
     32 N          67.0011   95.1510   11.3264 N.pl3   1  UNL1       -0.1835
     33 H          67.8401   95.5482   11.6543 H       1  UNL1        0.1767
     34 C          66.3279   95.7171   10.1113 C.ar    1  UNL1        0.2360
     35 N          67.0402   95.7178    8.7912 N.ar    1  UNL1       -0.2110
     36 C          66.3670   96.2838    7.5762 C.ar    1  UNL1        0.1035
     37 C          64.9816   96.8491    7.6812 C.ar    1  UNL1        0.0414
     38 C          64.2693   96.8484    9.0013 C.ar    1  UNL1        0.1035
     39 N          64.9425   96.2824   10.2163 N.ar    1  UNL1       -0.2110
@<TRIPOS>BOND
     1    27    28    1
     2    28    12    1
     3    12    13   ar
     4    13    14   ar
     5    14    19    1
     6    19    20   ar
     7    20    21   ar
     8    21    22   ar
     9    22    23    1
    10    22    24   ar
    11    24    25    1
    12    24    26   ar
    13    14    15   ar
    14    15    16    1
    15    15    17   ar
    16    17    18   ar
    17    18     1    1
    18     1     2   ar
    19     2     3    2
    20     2     4   ar
    21     4     5   ar
    22     5     6   ar
    23     6     7   ar
    24     7     8   ar
    25     8    29    1
    26    29    30    2
    27    29    31    2
    28    29    32    1
    29    32    34    1
    30    34    35   ar
    31    35    36   ar
    32    36    37   ar
    33    37    38   ar
    34    38    39   ar
    35     8     9   ar
    36     9    10   ar
    37    10    11   ar
    38    18    12   ar
    39    11     1   ar
    40    26    19   ar
    41    11     6   ar
    42    39    34   ar
    43    32    33    1
