@<TRIPOS>MOLECULE
*****
 13 14 0 0 0
SMALL
GASTEIGER

@<TRIPOS>ATOM
      1 C          65.1256   91.4678   14.4683 C.ar    1  UNL1        0.1874
      2 C          66.5752   91.3783   14.8434 C.ar    1  UNL1        0.0441
      3 C          67.3795   91.9903   13.7350 C.ar    1  UNL1        0.0408
      4 C          66.4269   92.4580   12.6748 C.ar    1  UNL1        0.1470
      5 O          65.0340   92.1351   13.1280 O.2     1  UNL1       -0.4501
      6 C          66.8016   93.1306   11.3874 C.ar    1  UNL1        0.0537
      7 C          67.6504   92.4086   10.3834 C.ar    1  UNL1        0.0062
      8 C          68.0250   93.0812    9.0961 C.ar    1  UNL1        0.0208
      9 C          67.5509   94.4758    8.8128 C.ar    1  UNL1        0.0989
     10 N          66.7022   95.1979    9.8169 N.ar    1  UNL1       -0.2422
     11 C          66.3275   94.5253   11.1042 C.ar    1  UNL1        0.1019
     12 O          63.5208   91.7524   16.4916 O.2     1  UNL1       -0.2797
     13 C          63.9705   90.9763   15.2893 C.2     1  UNL1        0.2714
@<TRIPOS>BOND
     1    12    13    2
     2    13     1    1
     3     1     2   ar
     4     2     3   ar
     5     3     4   ar
     6     4     6    1
     7     6     7   ar
     8     7     8   ar
     9     8     9   ar
    10     9    10   ar
    11    10    11   ar
    12     4     5   ar
    13     5     1   ar
    14    11     6   ar
@<TRIPOS>MOLECULE
*****
 13 14 0 0 0
SMALL
GASTEIGER

@<TRIPOS>ATOM
      1 C          60.6593   87.8718   10.7487 C.ar    1  UNL1        0.1874
      2 C          61.1076   87.6234    9.3390 C.ar    1  UNL1        0.0441
      3 C          61.9568   86.3870    9.3338 C.ar    1  UNL1        0.0408
      4 C          62.0334   85.8713   10.7403 C.ar    1  UNL1        0.1470
      5 O          61.2315   86.7890   11.6148 O.2     1  UNL1       -0.4501
      6 C          62.7807   84.6519   11.1928 C.ar    1  UNL1        0.0537
      7 C          63.5433   83.8276   10.1984 C.ar    1  UNL1        0.0062
      8 C          64.2906   82.6083   10.6510 C.ar    1  UNL1        0.0208
      9 C          64.2752   82.2133   12.0980 C.ar    1  UNL1        0.0989
     10 N          63.5126   83.0376   13.0924 N.ar    1  UNL1       -0.2422
     11 C          62.7654   84.2569   12.6398 C.ar    1  UNL1        0.1019
     12 O          59.7351   89.3601   12.6673 O.2     1  UNL1       -0.2797
     13 C          59.7912   89.0044   11.2112 C.2     1  UNL1        0.2714
@<TRIPOS>BOND
     1    12    13    2
     2    13     1    1
     3     1     2   ar
     4     2     3   ar
     5     3     4   ar
     6     4     6    1
     7     6     7   ar
     8     7     8   ar
     9     8     9   ar
    10     9    10   ar
    11    10    11   ar
    12     4     5   ar
    13     5     1   ar
    14    11     6   ar
@<TRIPOS>MOLECULE
*****
 13 14 0 0 0
SMALL
GASTEIGER

@<TRIPOS>ATOM
      1 C          63.2532   89.8818   12.7276 C.ar    1  UNL1        0.1874
      2 C          63.4598   90.9043   11.6496 C.ar    1  UNL1        0.0441
      3 C          62.8270   90.3863   10.3922 C.ar    1  UNL1        0.0408
      4 C          62.2293   89.0438   10.6930 C.ar    1  UNL1        0.1470
      5 O          62.4927   88.7320   12.1364 O.2     1  UNL1       -0.4501
      6 C          61.4968   88.1670    9.7210 C.ar    1  UNL1        0.0537
      7 C          62.0528   86.8221    9.3577 C.ar    1  UNL1        0.0062
      8 C          61.3204   85.9453    8.3858 C.ar    1  UNL1        0.0208
      9 C          60.0319   86.4135    7.7770 C.ar    1  UNL1        0.0989
     10 N          59.4759   87.7584    8.1403 N.ar    1  UNL1       -0.2422
     11 C          60.2083   88.6352    9.1122 C.ar    1  UNL1        0.1019
     12 O          63.5543   91.2778   14.8980 O.2     1  UNL1       -0.2797
     13 C          63.7244   89.9902   14.1476 C.2     1  UNL1        0.2714
@<TRIPOS>BOND
     1    12    13    2
     2    13     1    1
     3     1     2   ar
     4     2     3   ar
     5     3     4   ar
     6     4     6    1
     7     6     7   ar
     8     7     8   ar
     9     8     9   ar
    10     9    10   ar
    11    10    11   ar
    12     4     5   ar
    13     5     1   ar
    14    11     6   ar
@<TRIPOS>MOLECULE
*****
 13 14 0 0 0
SMALL
GASTEIGER

@<TRIPOS>ATOM
      1 C          67.4039   94.2939    9.1379 C.ar    1  UNL1        0.1874
      2 C          68.2351   93.0538    8.9907 C.ar    1  UNL1        0.0441
      3 C          67.9487   92.1622   10.1625 C.ar    1  UNL1        0.0408
      4 C          66.9406   92.8511   11.0338 C.ar    1  UNL1        0.1470
      5 O          66.6039   94.1685   10.4006 O.2     1  UNL1       -0.4501
      6 C          66.3695   92.3164   12.3137 C.ar    1  UNL1        0.0537
      7 C          67.2728   92.0319   13.4769 C.ar    1  UNL1        0.0062
      8 C          66.7016   91.4973   14.7567 C.ar    1  UNL1        0.0208
      9 C          65.2273   91.2471   14.8732 C.ar    1  UNL1        0.0989
     10 N          64.3240   91.5315   13.7100 N.ar    1  UNL1       -0.2422
     11 C          64.8951   92.0662   12.4302 C.ar    1  UNL1        0.1019
     12 O          67.4891   96.8558    8.7144 O.2     1  UNL1       -0.2797
     13 C          67.3774   95.4553    8.1890 C.2     1  UNL1        0.2714
@<TRIPOS>BOND
     1    12    13    2
     2    13     1    1
     3     1     2   ar
     4     2     3   ar
     5     3     4   ar
     6     4     6    1
     7     6     7   ar
     8     7     8   ar
     9     8     9   ar
    10     9    10   ar
    11    10    11   ar
    12     4     5   ar
    13     5     1   ar
    14    11     6   ar
@<TRIPOS>MOLECULE
*****
 13 14 0 0 0
SMALL
GASTEIGER

@<TRIPOS>ATOM
      1 C          62.4267   87.4821   11.3487 C.ar    1  UNL1        0.1874
      2 C          62.1095   86.7741   10.0648 C.ar    1  UNL1        0.0441
      3 C          62.2105   85.2982   10.3123 C.ar    1  UNL1        0.0408
      4 C          62.5900   85.0939   11.7491 C.ar    1  UNL1        0.1470
      5 O          62.7236   86.4437   12.3896 O.2     1  UNL1       -0.4501
      6 C          62.7991   83.7720   12.4264 C.ar    1  UNL1        0.0537
      7 C          62.7234   82.5019   11.6320 C.ar    1  UNL1        0.0062
      8 C          62.9326   81.1800   12.3093 C.ar    1  UNL1        0.0208
      9 C          63.2174   81.1282   13.7811 C.ar    1  UNL1        0.0989
     10 N          63.2931   82.3983   14.5756 N.ar    1  UNL1       -0.2422
     11 C          63.0839   83.7202   13.8982 C.ar    1  UNL1        0.1019
     12 O          61.4651   89.6055   12.4962 O.2     1  UNL1       -0.2797
     13 C          62.4438   88.9678   11.5553 C.2     1  UNL1        0.2714
@<TRIPOS>BOND
     1    12    13    2
     2    13     1    1
     3     1     2   ar
     4     2     3   ar
     5     3     4   ar
     6     4     6    1
     7     6     7   ar
     8     7     8   ar
     9     8     9   ar
    10     9    10   ar
    11    10    11   ar
    12     4     5   ar
    13     5     1   ar
    14    11     6   ar
@<TRIPOS>MOLECULE
*****
 13 14 0 0 0
SMALL
GASTEIGER

@<TRIPOS>ATOM
      1 C          62.6824   84.7497   12.7037 C.ar    1  UNL1        0.1874
      2 C          63.2730   84.0518   11.5145 C.ar    1  UNL1        0.0441
      3 C          62.7576   84.7265   10.2780 C.ar    1  UNL1        0.0408
      4 C          61.8484   85.8413   10.7029 C.ar    1  UNL1        0.1470
      5 O          61.8019   85.8556   12.2021 O.2     1  UNL1       -0.4501
      6 C          61.1145   86.7774    9.7890 C.ar    1  UNL1        0.0537
      7 C          60.3369   86.2349    8.6267 C.ar    1  UNL1        0.0062
      8 C          59.6030   87.1710    7.7129 C.ar    1  UNL1        0.0208
      9 C          59.6468   88.6496    7.9614 C.ar    1  UNL1        0.0989
     10 N          60.4244   89.1922    9.1237 N.ar    1  UNL1       -0.2422
     11 C          61.1582   88.2560   10.0375 C.ar    1  UNL1        0.1019
     12 O          61.8709   84.6719   15.1706 O.2     1  UNL1       -0.2797
     13 C          62.9289   84.4026   14.1421 C.2     1  UNL1        0.2714
@<TRIPOS>BOND
     1    12    13    2
     2    13     1    1
     3     1     2   ar
     4     2     3   ar
     5     3     4   ar
     6     4     6    1
     7     6     7   ar
     8     7     8   ar
     9     8     9   ar
    10     9    10   ar
    11    10    11   ar
    12     4     5   ar
    13     5     1   ar
    14    11     6   ar
@<TRIPOS>MOLECULE
*****
 13 14 0 0 0
SMALL
GASTEIGER

@<TRIPOS>ATOM
      1 C          64.1360   91.0344   13.4687 C.ar    1  UNL1        0.1874
      2 C          63.3623   90.7129   12.2245 C.ar    1  UNL1        0.0441
      3 C          63.9881   91.4593   11.0837 C.ar    1  UNL1        0.0408
      4 C          65.1485   92.2420   11.6229 C.ar    1  UNL1        0.1470
      5 O          65.2399   91.9794   13.0969 O.2     1  UNL1       -0.4501
      6 C          66.0579   93.1313   10.8276 C.ar    1  UNL1        0.0537
      7 C          65.6728   94.5574   10.5673 C.ar    1  UNL1        0.0062
      8 C          66.5821   95.4466    9.7720 C.ar    1  UNL1        0.0208
      9 C          67.8766   94.9096    9.2372 C.ar    1  UNL1        0.0989
     10 N          68.2617   93.4835    9.4976 N.ar    1  UNL1       -0.2422
     11 C          67.3523   92.5943   10.2928 C.ar    1  UNL1        0.1019
     12 O          62.5682   89.7852   15.1214 O.2     1  UNL1       -0.2797
     13 C          63.8551   90.5039   14.8434 C.2     1  UNL1        0.2714
@<TRIPOS>BOND
     1    12    13    2
     2    13     1    1
     3     1     2   ar
     4     2     3   ar
     5     3     4   ar
     6     4     6    1
     7     6     7   ar
     8     7     8   ar
     9     8     9   ar
    10     9    10   ar
    11    10    11   ar
    12     4     5   ar
    13     5     1   ar
    14    11     6   ar
@<TRIPOS>MOLECULE
*****
 13 14 0 0 0
SMALL
GASTEIGER

@<TRIPOS>ATOM
      1 C          63.7408   88.7588   13.3144 C.ar    1  UNL1        0.1874
      2 C          64.4319   88.5375   14.6272 C.ar    1  UNL1        0.0441
      3 C          64.4506   87.0623   14.8983 C.ar    1  UNL1        0.0408
      4 C          63.7710   86.3719   13.7531 C.ar    1  UNL1        0.1470
      5 O          63.3323   87.4204   12.7742 O.2     1  UNL1       -0.4501
      6 C          63.5660   84.8927   13.6116 C.ar    1  UNL1        0.0537
      7 C          63.0539   84.3265   12.3204 C.ar    1  UNL1        0.0062
      8 C          62.8490   82.8474   12.1790 C.ar    1  UNL1        0.0208
      9 C          63.1561   81.9343   13.3288 C.ar    1  UNL1        0.0989
     10 N          63.6682   82.5005   14.6200 N.ar    1  UNL1       -0.2422
     11 C          63.8732   83.9796   14.7614 C.ar    1  UNL1        0.1019
     12 O          63.7338   91.3546   13.4220 O.2     1  UNL1       -0.2797
     13 C          63.5004   90.0856   12.6572 C.2     1  UNL1        0.2714
@<TRIPOS>BOND
     1    12    13    2
     2    13     1    1
     3     1     2   ar
     4     2     3   ar
     5     3     4   ar
     6     4     6    1
     7     6     7   ar
     8     7     8   ar
     9     8     9   ar
    10     9    10   ar
    11    10    11   ar
    12     4     5   ar
    13     5     1   ar
    14    11     6   ar
@<TRIPOS>MOLECULE
*****
 13 14 0 0 0
SMALL
GASTEIGER

@<TRIPOS>ATOM
      1 C          61.0835   86.4079    9.2292 C.ar    1  UNL1        0.1874
      2 C          62.2218   85.8492    8.4277 C.ar    1  UNL1        0.0441
      3 C          63.0221   84.9507    9.3234 C.ar    1  UNL1        0.0408
      4 C          62.3785   84.9542   10.6783 C.ar    1  UNL1        0.1470
      5 O          61.1804   85.8548   10.6201 O.2     1  UNL1       -0.4501
      6 C          62.8502   84.1910   11.8805 C.ar    1  UNL1        0.0537
      7 C          62.7233   82.6968   11.9176 C.ar    1  UNL1        0.0062
      8 C          63.1950   81.9337   13.1197 C.ar    1  UNL1        0.0208
      9 C          63.7937   82.6647   14.2847 C.ar    1  UNL1        0.0989
     10 N          63.9206   84.1589   14.2476 N.ar    1  UNL1       -0.2422
     11 C          63.4489   84.9220   13.0455 C.ar    1  UNL1        0.1019
     12 O          58.8142   86.8216    8.0336 O.2     1  UNL1       -0.2797
     13 C          60.0328   87.3538    8.7276 C.2     1  UNL1        0.2714
@<TRIPOS>BOND
     1    12    13    2
     2    13     1    1
     3     1     2   ar
     4     2     3   ar
     5     3     4   ar
     6     4     6    1
     7     6     7   ar
     8     7     8   ar
     9     8     9   ar
    10     9    10   ar
    11    10    11   ar
    12     4     5   ar
    13     5     1   ar
    14    11     6   ar
