@<TRIPOS>MOLECULE
*****
 26 29 0 0 0
SMALL
GASTEIGER

@<TRIPOS>ATOM
      1 C          64.0404   90.6881   13.3435 C.ar    1  UNL1        0.1382
      2 C          63.3086   91.4191   12.2572 C.ar    1  UNL1        0.0369
      3 C          62.5150   90.6530   11.2407 C.ar    1  UNL1        0.0043
      4 C          62.4531   89.1559   11.3106 C.ar    1  UNL1        0.0153
      5 C          63.1848   88.4249   12.3970 C.ar    1  UNL1       -0.0173
      6 C          63.9785   89.1910   13.4134 C.ar    1  UNL1        0.0327
      7 C          63.1229   86.9278   12.4669 C.3     1  UNL1        0.0312
      8 C          62.3292   86.1617   11.4504 C.3     1  UNL1        0.0328
      9 C          61.5974   86.8927   10.3640 C.ar    1  UNL1        0.0022
     10 C          60.8038   86.1266    9.3476 C.ar    1  UNL1        0.0595
     11 C          60.0720   86.8576    8.2612 C.ar    1  UNL1        0.2762
     12 O          59.2783   86.0915    7.2448 O.2     1  UNL1       -0.2655
     13 N          60.1339   88.3547    8.1913 N.ar    1  UNL1       -0.2146
     14 C          59.4022   89.0857    7.1050 C.3     1  UNL1        0.1571
     15 N          60.9276   89.1208    9.2078 N.ar    1  UNL1       -0.1671
     16 C          61.6593   88.3898   10.2941 C.ar    1  UNL1        0.0968
     17 O          64.8341   91.4542   14.3600 O.3     1  UNL1       -0.4754
     18 C          66.2764   91.7734   14.0999 C.3     1  UNL1        0.2068
     19 C          66.6411   92.8873   13.1638 C.3     1  UNL1        0.0646
     20 C          66.9497   92.5883   11.7266 C.3     1  UNL1        0.0759
     21 C          68.5649   92.4460    8.8946 C.3     1  UNL1        0.0173
     22 C          67.8501   93.6454    9.4426 C.3     1  UNL1        0.0576
     23 C          67.7521   94.9900    8.7850 C.3     1  UNL1        0.0174
     24 C          66.9491   95.8865    9.6803 C.3     1  UNL1        0.0187
     25 C          66.5509   95.0959   10.8912 C.3     1  UNL1        0.0721
     26 N          67.1076   93.7109   10.7443 N.3     1  UNL1       -0.2738
@<TRIPOS>BOND
     1    22    21    1
     2    22    23    1
     3    23    24    1
     4    24    25    1
     5    25    26    1
     6    26    20    1
     7    20    19    1
     8    19    18    1
     9    18    17    1
    10    17     1    1
    11     1     2   ar
    12     2     3   ar
    13     3     4   ar
    14     4     5   ar
    15     5     6   ar
    16     5     7    1
    17     7     8    1
    18     8     9    1
    19     9    10   ar
    20    10    11   ar
    21    11    12    2
    22    11    13   ar
    23    13    14    1
    24    13    15   ar
    25    15    16   ar
    26    26    22    1
    27     6     1   ar
    28    16     9   ar
    29    16     4    1
@<TRIPOS>MOLECULE
*****
 26 29 0 0 0
SMALL
GASTEIGER

@<TRIPOS>ATOM
      1 C          64.1465   90.5406   13.6397 C.ar    1  UNL1        0.1382
      2 C          64.5856   89.4814   14.6068 C.ar    1  UNL1        0.0369
      3 C          64.2920   88.0381   14.3225 C.ar    1  UNL1        0.0043
      4 C          63.5594   87.6541   13.0712 C.ar    1  UNL1        0.0153
      5 C          63.1203   88.7133   12.1042 C.ar    1  UNL1       -0.0173
      6 C          63.4139   90.1566   12.3884 C.ar    1  UNL1        0.0327
      7 C          62.3876   88.3293   10.8529 C.3     1  UNL1        0.0312
      8 C          62.0941   86.8861   10.5686 C.3     1  UNL1        0.0328
      9 C          62.5332   85.8268   11.5357 C.ar    1  UNL1        0.0022
     10 C          62.2396   84.3836   11.2514 C.ar    1  UNL1        0.0595
     11 C          62.6787   83.3242   12.2185 C.ar    1  UNL1        0.2762
     12 O          62.3851   81.8810   11.9342 O.2     1  UNL1       -0.2655
     13 N          63.4113   83.7083   13.4698 N.ar    1  UNL1       -0.2146
     14 C          63.8504   82.6490   14.4369 C.3     1  UNL1        0.1571
     15 N          63.7049   85.1516   13.7540 N.ar    1  UNL1       -0.1671
     16 C          63.2658   86.2108   12.7870 C.ar    1  UNL1        0.0968
     17 O          64.4401   91.9839   13.9240 O.3     1  UNL1       -0.4754
     18 C          65.8394   92.4146   14.2500 C.3     1  UNL1        0.2068
     19 C          66.5999   93.2819   13.2910 C.3     1  UNL1        0.0646
     20 C          66.7629   92.8561   11.8620 C.3     1  UNL1        0.0759
     21 C          68.4376   92.3838    9.1013 C.3     1  UNL1        0.0173
     22 C          67.7859   93.6654    9.5289 C.3     1  UNL1        0.0576
     23 C          67.7896   94.9549    8.7627 C.3     1  UNL1        0.0174
     24 C          67.0221   95.9690    9.5580 C.3     1  UNL1        0.0187
     25 C          66.5441   95.3062   10.8159 C.3     1  UNL1        0.0721
     26 N          67.0161   93.8825   10.7979 N.3     1  UNL1       -0.2738
@<TRIPOS>BOND
     1    22    21    1
     2    22    23    1
     3    23    24    1
     4    24    25    1
     5    25    26    1
     6    26    20    1
     7    20    19    1
     8    19    18    1
     9    18    17    1
    10    17     1    1
    11     1     2   ar
    12     2     3   ar
    13     3     4   ar
    14     4     5   ar
    15     5     6   ar
    16     5     7    1
    17     7     8    1
    18     8     9    1
    19     9    10   ar
    20    10    11   ar
    21    11    12    2
    22    11    13   ar
    23    13    14    1
    24    13    15   ar
    25    15    16   ar
    26    26    22    1
    27     6     1   ar
    28    16     9   ar
    29    16     4    1
@<TRIPOS>MOLECULE
*****
 26 29 0 0 0
SMALL
GASTEIGER

@<TRIPOS>ATOM
      1 C          62.7532   89.5409   11.4657 C.ar    1  UNL1        0.1382
      2 C          62.2171   88.3885   10.6693 C.ar    1  UNL1        0.0369
      3 C          62.3961   86.9850   11.1673 C.ar    1  UNL1        0.0043
      4 C          63.1111   86.7339   12.4618 C.ar    1  UNL1        0.0153
      5 C          63.6472   87.8863   13.2582 C.ar    1  UNL1       -0.0173
      6 C          63.4683   89.2899   12.7602 C.ar    1  UNL1        0.0327
      7 C          64.3623   87.6353   14.5527 C.3     1  UNL1        0.0312
      8 C          64.5412   86.2317   15.0507 C.3     1  UNL1        0.0328
      9 C          64.0051   85.0792   14.2542 C.ar    1  UNL1        0.0022
     10 C          64.1841   83.6757   14.7522 C.ar    1  UNL1        0.0595
     11 C          63.6479   82.5231   13.9558 C.ar    1  UNL1        0.2762
     12 O          63.8269   81.1196   14.4538 O.2     1  UNL1       -0.2655
     13 N          62.9329   82.7742   12.6613 N.ar    1  UNL1       -0.2146
     14 C          62.3968   81.6218   11.8648 C.3     1  UNL1        0.1571
     15 N          62.7539   84.1778   12.1633 N.ar    1  UNL1       -0.1671
     16 C          63.2901   85.3303   12.9597 C.ar    1  UNL1        0.0968
     17 O          62.5743   90.9446   10.9677 O.3     1  UNL1       -0.4754
     18 C          63.7672   91.7451   10.5364 C.3     1  UNL1        0.2068
     19 C          64.7418   92.2493   11.5592 C.3     1  UNL1        0.0646
     20 C          66.1851   92.4315   11.1940 C.3     1  UNL1        0.0759
     21 C          68.5472   92.4590    8.9425 C.3     1  UNL1        0.0173
     22 C          67.6934   93.6268    9.3389 C.3     1  UNL1        0.0576
     23 C          67.7754   95.0123    8.7701 C.3     1  UNL1        0.0174
     24 C          66.7404   95.8561    9.4535 C.3     1  UNL1        0.0187
     25 C          66.0187   94.9919   10.4446 C.3     1  UNL1        0.0721
     26 N          66.6077   93.6142   10.3739 N.3     1  UNL1       -0.2738
@<TRIPOS>BOND
     1    22    21    1
     2    22    23    1
     3    23    24    1
     4    24    25    1
     5    25    26    1
     6    26    20    1
     7    20    19    1
     8    19    18    1
     9    18    17    1
    10    17     1    1
    11     1     2   ar
    12     2     3   ar
    13     3     4   ar
    14     4     5   ar
    15     5     6   ar
    16     5     7    1
    17     7     8    1
    18     8     9    1
    19     9    10   ar
    20    10    11   ar
    21    11    12    2
    22    11    13   ar
    23    13    14    1
    24    13    15   ar
    25    15    16   ar
    26    26    22    1
    27     6     1   ar
    28    16     9   ar
    29    16     4    1
@<TRIPOS>MOLECULE
*****
 26 29 0 0 0
SMALL
GASTEIGER

@<TRIPOS>ATOM
      1 C          62.5959   89.3585   11.4178 C.ar    1  UNL1        0.1382
      2 C          62.0797   88.1905   10.6310 C.ar    1  UNL1        0.0369
      3 C          62.3069   86.7931   11.1267 C.ar    1  UNL1        0.0043
      4 C          63.0503   86.5638   12.4092 C.ar    1  UNL1        0.0153
      5 C          63.5665   87.7319   13.1960 C.ar    1  UNL1       -0.0173
      6 C          63.3393   89.1292   12.7003 C.ar    1  UNL1        0.0327
      7 C          64.3099   87.5026   14.4785 C.3     1  UNL1        0.0312
      8 C          64.5371   86.1053   14.9742 C.3     1  UNL1        0.0328
      9 C          64.0208   84.9371   14.1873 C.ar    1  UNL1        0.0022
     10 C          64.2480   83.5397   14.6830 C.ar    1  UNL1        0.0595
     11 C          63.7318   82.3716   13.8962 C.ar    1  UNL1        0.2762
     12 O          63.9590   80.9742   14.3919 O.2     1  UNL1       -0.2655
     13 N          62.9884   82.6009   12.6137 N.ar    1  UNL1       -0.2146
     14 C          62.4722   81.4328   11.8269 C.3     1  UNL1        0.1571
     15 N          62.7613   83.9983   12.1180 N.ar    1  UNL1       -0.1671
     16 C          63.2775   85.1664   12.9049 C.ar    1  UNL1        0.0968
     17 O          62.3687   90.7560   10.9221 O.3     1  UNL1       -0.4754
     18 C          63.4347   91.4534   10.1302 C.3     1  UNL1        0.2068
     19 C          64.6690   91.9591   10.8165 C.3     1  UNL1        0.0646
     20 C          64.6274   92.3058   12.2753 C.3     1  UNL1        0.0759
     21 C          64.6075   91.1825   15.3391 C.3     1  UNL1        0.0173
     22 C          65.8239   91.5556   14.5447 C.3     1  UNL1        0.0576
     23 C          67.2448   91.4778   15.0191 C.3     1  UNL1        0.0174
     24 C          68.1321   91.9461   13.9040 C.3     1  UNL1        0.0187
     25 C          67.2596   92.3133   12.7405 C.3     1  UNL1        0.0721
     26 N          65.8331   92.0719   13.1364 N.3     1  UNL1       -0.2738
@<TRIPOS>BOND
     1    22    21    1
     2    22    23    1
     3    23    24    1
     4    24    25    1
     5    25    26    1
     6    26    20    1
     7    20    19    1
     8    19    18    1
     9    18    17    1
    10    17     1    1
    11     1     2   ar
    12     2     3   ar
    13     3     4   ar
    14     4     5   ar
    15     5     6   ar
    16     5     7    1
    17     7     8    1
    18     8     9    1
    19     9    10   ar
    20    10    11   ar
    21    11    12    2
    22    11    13   ar
    23    13    14    1
    24    13    15   ar
    25    15    16   ar
    26    26    22    1
    27     6     1   ar
    28    16     9   ar
    29    16     4    1
@<TRIPOS>MOLECULE
*****
 26 29 0 0 0
SMALL
GASTEIGER

@<TRIPOS>ATOM
      1 C          61.6228   89.0886   10.2017 C.ar    1  UNL1        0.1382
      2 C          62.0837   90.4292    9.7116 C.ar    1  UNL1        0.0369
      3 C          63.0705   91.2230   10.5155 C.ar    1  UNL1        0.0043
      4 C          63.5964   90.6761   11.8094 C.ar    1  UNL1        0.0153
      5 C          63.1355   89.3354   12.2995 C.ar    1  UNL1       -0.0173
      6 C          62.1488   88.5417   11.4957 C.ar    1  UNL1        0.0327
      7 C          63.6615   88.7885   13.5935 C.3     1  UNL1        0.0312
      8 C          64.6483   89.5822   14.3973 C.3     1  UNL1        0.0328
      9 C          65.1092   90.9230   13.9072 C.ar    1  UNL1        0.0022
     10 C          66.0959   91.7167   14.7110 C.ar    1  UNL1        0.0595
     11 C          66.5569   93.0574   14.2210 C.ar    1  UNL1        0.2762
     12 O          67.5436   93.8511   15.0248 O.2     1  UNL1       -0.2655
     13 N          66.0309   93.6043   12.9270 N.ar    1  UNL1       -0.2146
     14 C          66.4918   94.9450   12.4369 C.3     1  UNL1        0.1571
     15 N          65.0441   92.8105   12.1232 N.ar    1  UNL1       -0.1671
     16 C          64.5832   91.4699   12.6133 C.ar    1  UNL1        0.0968
     17 O          60.6360   88.2948    9.3979 O.3     1  UNL1       -0.4754
     18 C          61.0028   86.9297    8.8960 C.3     1  UNL1        0.2068
     19 C          62.4180   86.4449    9.0075 C.3     1  UNL1        0.0646
     20 C          62.6948   85.0063    9.3294 C.3     1  UNL1        0.0759
     21 C          64.4191   82.4241   10.3337 C.3     1  UNL1        0.0173
     22 C          63.6917   83.3955   11.2153 C.3     1  UNL1        0.0576
     23 C          63.6293   83.3506   12.7133 C.3     1  UNL1        0.0174
     24 C          62.7980   84.5098   13.1776 C.3     1  UNL1        0.0187
     25 C          62.3468   85.2711   11.9665 C.3     1  UNL1        0.0721
     26 N          62.8991   84.5824   10.7537 N.3     1  UNL1       -0.2738
@<TRIPOS>BOND
     1    22    21    1
     2    22    23    1
     3    23    24    1
     4    24    25    1
     5    25    26    1
     6    26    20    1
     7    20    19    1
     8    19    18    1
     9    18    17    1
    10    17     1    1
    11     1     2   ar
    12     2     3   ar
    13     3     4   ar
    14     4     5   ar
    15     5     6   ar
    16     5     7    1
    17     7     8    1
    18     8     9    1
    19     9    10   ar
    20    10    11   ar
    21    11    12    2
    22    11    13   ar
    23    13    14    1
    24    13    15   ar
    25    15    16   ar
    26    26    22    1
    27     6     1   ar
    28    16     9   ar
    29    16     4    1
@<TRIPOS>MOLECULE
*****
 26 29 0 0 0
SMALL
GASTEIGER

@<TRIPOS>ATOM
      1 C          60.3286   88.3413    8.9633 C.ar    1  UNL1        0.1382
      2 C          60.1176   88.2460   10.4453 C.ar    1  UNL1        0.0369
      3 C          60.7954   87.1630   11.2312 C.ar    1  UNL1        0.0043
      4 C          61.6843   86.1754   10.5351 C.ar    1  UNL1        0.0153
      5 C          61.8953   86.2707    9.0531 C.ar    1  UNL1       -0.0173
      6 C          61.2174   87.3537    8.2672 C.ar    1  UNL1        0.0327
      7 C          62.7841   85.2831    8.3570 C.3     1  UNL1        0.0312
      8 C          63.4620   84.2001    9.1429 C.3     1  UNL1        0.0328
      9 C          63.2510   84.1048   10.6250 C.ar    1  UNL1        0.0022
     10 C          63.9288   83.0218   11.4109 C.ar    1  UNL1        0.0595
     11 C          63.7178   82.9265   12.8930 C.ar    1  UNL1        0.2762
     12 O          64.3957   81.8435   13.6789 O.2     1  UNL1       -0.2655
     13 N          62.8290   83.9141   13.5891 N.ar    1  UNL1       -0.2146
     14 C          62.6180   83.8188   15.0711 C.3     1  UNL1        0.1571
     15 N          62.1511   84.9971   12.8031 N.ar    1  UNL1       -0.1671
     16 C          62.3621   85.0924   11.3211 C.ar    1  UNL1        0.0968
     17 O          59.6507   89.4243    8.1773 O.3     1  UNL1       -0.4754
     18 C          59.2744   89.1878    6.7447 C.3     1  UNL1        0.2068
     19 C          59.3517   90.3112    5.7536 C.3     1  UNL1        0.0646
     20 C          60.6867   90.7898    5.2651 C.3     1  UNL1        0.0759
     21 C          63.2343   91.1475    3.2574 C.3     1  UNL1        0.0173
     22 C          61.9365   91.8953    3.1769 C.3     1  UNL1        0.0576
     23 C          61.5819   92.9388    2.1594 C.3     1  UNL1        0.0174
     24 C          60.1916   93.4193    2.4534 C.3     1  UNL1        0.0187
     25 C          59.6871   92.6728    3.6526 C.3     1  UNL1        0.0721
     26 N          60.7655   91.7309    4.0997 N.3     1  UNL1       -0.2738
@<TRIPOS>BOND
     1    22    21    1
     2    22    23    1
     3    23    24    1
     4    24    25    1
     5    25    26    1
     6    26    20    1
     7    20    19    1
     8    19    18    1
     9    18    17    1
    10    17     1    1
    11     1     2   ar
    12     2     3   ar
    13     3     4   ar
    14     4     5   ar
    15     5     6   ar
    16     5     7    1
    17     7     8    1
    18     8     9    1
    19     9    10   ar
    20    10    11   ar
    21    11    12    2
    22    11    13   ar
    23    13    14    1
    24    13    15   ar
    25    15    16   ar
    26    26    22    1
    27     6     1   ar
    28    16     9   ar
    29    16     4    1
@<TRIPOS>MOLECULE
*****
 26 29 0 0 0
SMALL
GASTEIGER

@<TRIPOS>ATOM
      1 C          63.8758   86.6788   13.6620 C.ar    1  UNL1        0.1382
      2 C          63.1276   85.6792   12.8308 C.ar    1  UNL1        0.0369
      3 C          62.3074   86.1394   11.6623 C.ar    1  UNL1        0.0043
      4 C          62.2352   87.5992   11.3251 C.ar    1  UNL1        0.0153
      5 C          62.9834   88.5988   12.1563 C.ar    1  UNL1       -0.0173
      6 C          63.8037   88.1386   13.3248 C.ar    1  UNL1        0.0327
      7 C          62.9113   90.0587   11.8191 C.3     1  UNL1        0.0312
      8 C          62.0910   90.5189   10.6507 C.3     1  UNL1        0.0328
      9 C          61.3428   89.5193    9.8193 C.ar    1  UNL1        0.0022
     10 C          60.5226   89.9795    8.6509 C.ar    1  UNL1        0.0595
     11 C          59.7743   88.9798    7.8196 C.ar    1  UNL1        0.2762
     12 O          58.9541   89.4401    6.6511 O.2     1  UNL1       -0.2655
     13 N          59.8464   87.5200    8.1568 N.ar    1  UNL1       -0.2146
     14 C          59.0983   86.5204    7.3256 C.3     1  UNL1        0.1571
     15 N          60.6668   87.0598    9.3253 N.ar    1  UNL1       -0.1671
     16 C          61.4149   88.0594   10.1566 C.ar    1  UNL1        0.0968
     17 O          64.6961   86.2186   14.8305 O.3     1  UNL1       -0.4754
     18 C          64.0456   85.4675   15.9541 C.3     1  UNL1        0.2068
     19 C          63.3374   84.1737   15.6805 C.3     1  UNL1        0.0646
     20 C          64.0879   83.0190   15.0862 C.3     1  UNL1        0.0759
     21 C          61.4687   81.2949   14.1826 C.3     1  UNL1        0.0173
     22 C          62.5698   81.7646   13.2788 C.3     1  UNL1        0.0576
     23 C          62.6602   81.5243   11.8010 C.3     1  UNL1        0.0174
     24 C          63.9201   82.1683   11.3029 C.3     1  UNL1        0.0187
     25 C          64.6082   82.8066   12.4729 C.3     1  UNL1        0.0721
     26 N          63.7737   82.5571   13.6941 N.3     1  UNL1       -0.2738
@<TRIPOS>BOND
     1    22    21    1
     2    22    23    1
     3    23    24    1
     4    24    25    1
     5    25    26    1
     6    26    20    1
     7    20    19    1
     8    19    18    1
     9    18    17    1
    10    17     1    1
    11     1     2   ar
    12     2     3   ar
    13     3     4   ar
    14     4     5   ar
    15     5     6   ar
    16     5     7    1
    17     7     8    1
    18     8     9    1
    19     9    10   ar
    20    10    11   ar
    21    11    12    2
    22    11    13   ar
    23    13    14    1
    24    13    15   ar
    25    15    16   ar
    26    26    22    1
    27     6     1   ar
    28    16     9   ar
    29    16     4    1
@<TRIPOS>MOLECULE
*****
 26 29 0 0 0
SMALL
GASTEIGER

@<TRIPOS>ATOM
      1 C          61.4394   87.8519    9.7221 C.ar    1  UNL1        0.1382
      2 C          61.1241   87.6923   11.1798 C.ar    1  UNL1        0.0369
      3 C          61.5706   86.4625   11.9134 C.ar    1  UNL1        0.0043
      4 C          62.3323   85.3923   11.1892 C.ar    1  UNL1        0.0153
      5 C          62.6476   85.5519    9.7314 C.ar    1  UNL1       -0.0173
      6 C          62.2011   86.7817    8.9979 C.ar    1  UNL1        0.0327
      7 C          63.4093   84.4817    9.0073 C.3     1  UNL1        0.0312
      8 C          63.8558   83.2519    9.7408 C.3     1  UNL1        0.0328
      9 C          63.5405   83.0922   11.1987 C.ar    1  UNL1        0.0022
     10 C          63.9869   81.8624   11.9322 C.ar    1  UNL1        0.0595
     11 C          63.6717   81.7027   13.3901 C.ar    1  UNL1        0.2762
     12 O          64.1181   80.4729   14.1236 O.2     1  UNL1       -0.2655
     13 N          62.9099   82.7729   14.1142 N.ar    1  UNL1       -0.2146
     14 C          62.5947   82.6133   15.5720 C.3     1  UNL1        0.1571
     15 N          62.4635   84.0028   13.3806 N.ar    1  UNL1       -0.1671
     16 C          62.7788   84.1624   11.9228 C.ar    1  UNL1        0.0968
     17 O          60.9929   89.0818    8.9884 O.3     1  UNL1       -0.4754
     18 C          61.2439   90.4386    9.5767 C.3     1  UNL1        0.2068
     19 C          62.6162   90.8047   10.0593 C.3     1  UNL1        0.0646
     20 C          62.9048   90.8564   11.5303 C.3     1  UNL1        0.0759
     21 C          64.2234   90.3870   14.4782 C.3     1  UNL1        0.0173
     22 C          64.8033   91.2229   13.3760 C.3     1  UNL1        0.0576
     23 C          66.0910   91.9898   13.4352 C.3     1  UNL1        0.0174
     24 C          66.2809   92.6796   12.1168 C.3     1  UNL1        0.0187
     25 C          65.1104   92.3389   11.2427 C.3     1  UNL1        0.0721
     26 N          64.1972   91.4387   12.0210 N.3     1  UNL1       -0.2738
@<TRIPOS>BOND
     1    22    21    1
     2    22    23    1
     3    23    24    1
     4    24    25    1
     5    25    26    1
     6    26    20    1
     7    20    19    1
     8    19    18    1
     9    18    17    1
    10    17     1    1
    11     1     2   ar
    12     2     3   ar
    13     3     4   ar
    14     4     5   ar
    15     5     6   ar
    16     5     7    1
    17     7     8    1
    18     8     9    1
    19     9    10   ar
    20    10    11   ar
    21    11    12    2
    22    11    13   ar
    23    13    14    1
    24    13    15   ar
    25    15    16   ar
    26    26    22    1
    27     6     1   ar
    28    16     9   ar
    29    16     4    1
@<TRIPOS>MOLECULE
*****
 26 29 0 0 0
SMALL
GASTEIGER

@<TRIPOS>ATOM
      1 C          63.0198   90.4409   10.9325 C.ar    1  UNL1        0.1382
      2 C          63.4827   90.0680   12.3097 C.ar    1  UNL1        0.0369
      3 C          63.4559   88.6335   12.7470 C.ar    1  UNL1        0.0043
      4 C          62.9663   87.5719   11.8073 C.ar    1  UNL1        0.0153
      5 C          62.5034   87.9448   10.4301 C.ar    1  UNL1       -0.0173
      6 C          62.5301   89.3793    9.9927 C.ar    1  UNL1        0.0327
      7 C          62.0137   86.8832    9.4903 C.3     1  UNL1        0.0312
      8 C          61.9869   85.4486    9.9277 C.3     1  UNL1        0.0328
      9 C          62.4499   85.0756   11.3049 C.ar    1  UNL1        0.0022
     10 C          62.4231   83.6411   11.7423 C.ar    1  UNL1        0.0595
     11 C          62.8860   83.2681   13.1195 C.ar    1  UNL1        0.2762
     12 O          62.8593   81.8336   13.5569 O.2     1  UNL1       -0.2655
     13 N          63.3757   84.3298   14.0593 N.ar    1  UNL1       -0.2146
     14 C          63.8386   83.9568   15.4365 C.3     1  UNL1        0.1571
     15 N          63.4025   85.7644   13.6219 N.ar    1  UNL1       -0.1671
     16 C          62.9395   86.1373   12.2447 C.ar    1  UNL1        0.0968
     17 O          63.0465   91.8755   10.4951 O.3     1  UNL1       -0.4754
     18 C          64.2607   92.7167   10.7561 C.3     1  UNL1        0.2068
     19 C          65.5310   92.0739   11.2285 C.3     1  UNL1        0.0646
     20 C          66.7871   92.8865   11.3378 C.3     1  UNL1        0.0759
     21 C          66.1772   96.0688   11.7253 C.3     1  UNL1        0.0173
     22 C          66.7906   95.4296   10.5148 C.3     1  UNL1        0.0576
     23 C          67.2312   96.1410    9.2700 C.3     1  UNL1        0.0174
     24 C          67.7839   95.1179    8.3224 C.3     1  UNL1        0.0187
     25 C          67.6848   93.7742    8.9817 C.3     1  UNL1        0.0721
     26 N          67.0709   93.9668   10.3367 N.3     1  UNL1       -0.2738
@<TRIPOS>BOND
     1    22    21    1
     2    22    23    1
     3    23    24    1
     4    24    25    1
     5    25    26    1
     6    26    20    1
     7    20    19    1
     8    19    18    1
     9    18    17    1
    10    17     1    1
    11     1     2   ar
    12     2     3   ar
    13     3     4   ar
    14     4     5   ar
    15     5     6   ar
    16     5     7    1
    17     7     8    1
    18     8     9    1
    19     9    10   ar
    20    10    11   ar
    21    11    12    2
    22    11    13   ar
    23    13    14    1
    24    13    15   ar
    25    15    16   ar
    26    26    22    1
    27     6     1   ar
    28    16     9   ar
    29    16     4    1
