@<TRIPOS>MOLECULE
*****
 20 22 0 0 0
SMALL
GASTEIGER

@<TRIPOS>ATOM
      1 N          61.9968   79.7226   13.4501 N.pl3   1  UNL1       -0.3441
      2 C          62.3885   81.1688   13.5220 C.ar    1  UNL1        0.1035
      3 C          62.9520   81.8542   12.3127 C.ar    1  UNL1        0.0296
      4 C          63.3437   83.3005   12.3846 C.ar    1  UNL1        0.0074
      5 C          63.1718   84.0611   13.6659 C.ar    1  UNL1        0.1365
      6 N          63.4666   85.4848   14.0353 N.ar    1  UNL1       -0.1258
      7 N          63.0852   85.6791   15.4729 N.ar    1  UNL1       -0.0406
      8 N          62.5547   84.3756   15.9921 N.ar    1  UNL1       -0.1095
      9 C          62.6082   83.3757   14.8753 C.ar    1  UNL1        0.1838
     10 N          62.2166   81.9295   14.8033 N.ar    1  UNL1       -0.3249
     11 H          62.1096   79.2233   12.6092 H       1  UNL1        0.1437
     12 H          61.6269   79.2727   14.2439 H       1  UNL1        0.1437
     13 H          61.8467   81.4796   15.5971 H       1  UNL1        0.1686
     14 C          63.9072   83.9859   11.1752 C.3     1  UNL1        0.0544
     15 C          62.9976   84.7286   10.2421 C.ar    1  UNL1       -0.0177
     16 C          61.8522   85.5278   10.7893 C.ar    1  UNL1       -0.0039
     17 C          60.9424   86.2705    9.8562 C.ar    1  UNL1       -0.0003
     18 C          61.1781   86.2141    8.3759 C.ar    1  UNL1       -0.0000
     19 C          62.3235   85.4150    7.8287 C.ar    1  UNL1       -0.0003
     20 C          63.2332   84.6722    8.7618 C.ar    1  UNL1       -0.0039
@<TRIPOS>BOND
     1     1     2    1
     2     2     3   ar
     3     3     4   ar
     4     4    14    1
     5    14    15    1
     6    15    16   ar
     7    16    17   ar
     8    17    18   ar
     9    18    19   ar
    10    19    20   ar
    11     4     5   ar
    12     5     6   ar
    13     6     7   ar
    14     7     8   ar
    15     8     9   ar
    16     9    10   ar
    17    10     2   ar
    18    20    15   ar
    19     9     5    1
    20     1    11    1
    21     1    12    1
    22    10    13    1
@<TRIPOS>MOLECULE
*****
 20 22 0 0 0
SMALL
GASTEIGER

@<TRIPOS>ATOM
      1 N          64.5535   85.1905   15.7936 N.pl3   1  UNL1       -0.3441
      2 C          64.1492   84.1608   14.7804 C.ar    1  UNL1        0.1035
      3 C          64.3465   84.4297   13.3180 C.ar    1  UNL1        0.0296
      4 C          63.9421   83.4000   12.3048 C.ar    1  UNL1        0.0074
      5 C          63.3405   82.1016   12.7542 C.ar    1  UNL1        0.1365
      6 N          62.8490   80.9063   11.9927 N.ar    1  UNL1       -0.1258
      7 N          62.3480   79.8988   12.9846 N.ar    1  UNL1       -0.0406
      8 N          62.5297   80.4713   14.3591 N.ar    1  UNL1       -0.1095
      9 C          63.1431   81.8327   14.2167 C.ar    1  UNL1        0.1838
     10 N          63.5475   82.8624   15.2298 N.ar    1  UNL1       -0.3249
     11 H          64.9484   86.0427   15.4987 H       1  UNL1        0.1437
     12 H          64.4240   85.0140   16.7534 H       1  UNL1        0.1437
     13 H          63.4180   82.6859   16.1896 H       1  UNL1        0.1686
     14 C          64.1395   83.6689   10.8424 C.3     1  UNL1        0.0544
     15 C          63.1655   84.5360   10.1011 C.ar    1  UNL1       -0.0177
     16 C          62.1022   85.2811   10.8523 C.ar    1  UNL1       -0.0039
     17 C          61.1282   86.1482   10.1111 C.ar    1  UNL1       -0.0003
     18 C          61.2174   86.2700    8.6187 C.ar    1  UNL1       -0.0000
     19 C          62.2806   85.5249    7.8675 C.ar    1  UNL1       -0.0003
     20 C          63.2547   84.6578    8.6087 C.ar    1  UNL1       -0.0039
@<TRIPOS>BOND
     1     1     2    1
     2     2     3   ar
     3     3     4   ar
     4     4    14    1
     5    14    15    1
     6    15    16   ar
     7    16    17   ar
     8    17    18   ar
     9    18    19   ar
    10    19    20   ar
    11     4     5   ar
    12     5     6   ar
    13     6     7   ar
    14     7     8   ar
    15     8     9   ar
    16     9    10   ar
    17    10     2   ar
    18    20    15   ar
    19     9     5    1
    20     1    11    1
    21     1    12    1
    22    10    13    1
@<TRIPOS>MOLECULE
*****
 20 22 0 0 0
SMALL
GASTEIGER

@<TRIPOS>ATOM
      1 N          62.0942   90.4952    9.7712 N.pl3   1  UNL1       -0.3441
      2 C          62.7771   90.7196   11.0878 C.ar    1  UNL1        0.1035
      3 C          64.0219   91.5538   11.1544 C.ar    1  UNL1        0.0296
      4 C          64.7048   91.7782   12.4710 C.ar    1  UNL1        0.0074
      5 C          64.1428   91.1684   13.7209 C.ar    1  UNL1        0.1365
      6 N          64.5939   91.2146   15.1507 N.ar    1  UNL1       -0.1258
      7 N          63.6278   90.4088   15.9677 N.ar    1  UNL1       -0.0406
      8 N          62.5797   89.8647   15.0428 N.ar    1  UNL1       -0.1095
      9 C          62.8980   90.3342   13.6542 C.ar    1  UNL1        0.1838
     10 N          62.2151   90.1098   12.3376 N.ar    1  UNL1       -0.3249
     11 H          62.4630   90.8955    8.9508 H       1  UNL1        0.1437
     12 H          61.2772   89.9477    9.7274 H       1  UNL1        0.1437
     13 H          61.3981   89.5623   12.2939 H       1  UNL1        0.1686
     14 C          65.9497   92.6125   12.5376 C.3     1  UNL1        0.0544
     15 C          66.5396   93.1810   11.2812 C.ar    1  UNL1       -0.0177
     16 C          67.5227   92.3766   10.4835 C.ar    1  UNL1       -0.0039
     17 C          68.1127   92.9450    9.2270 C.ar    1  UNL1       -0.0003
     18 C          67.7196   94.3179    8.7682 C.ar    1  UNL1       -0.0000
     19 C          66.7365   95.1224    9.5659 C.ar    1  UNL1       -0.0003
     20 C          66.1465   94.5539   10.8224 C.ar    1  UNL1       -0.0039
@<TRIPOS>BOND
     1     1     2    1
     2     2     3   ar
     3     3     4   ar
     4     4    14    1
     5    14    15    1
     6    15    16   ar
     7    16    17   ar
     8    17    18   ar
     9    18    19   ar
    10    19    20   ar
    11     4     5   ar
    12     5     6   ar
    13     6     7   ar
    14     7     8   ar
    15     8     9   ar
    16     9    10   ar
    17    10     2   ar
    18    20    15   ar
    19     9     5    1
    20     1    11    1
    21     1    12    1
    22    10    13    1
@<TRIPOS>MOLECULE
*****
 20 22 0 0 0
SMALL
GASTEIGER

@<TRIPOS>ATOM
      1 N          62.8568   91.1111   10.0997 N.pl3   1  UNL1       -0.3441
      2 C          63.7497   91.3415   11.2829 C.ar    1  UNL1        0.1035
      3 C          63.3278   90.8719   12.6435 C.ar    1  UNL1        0.0296
      4 C          64.2207   91.1023   13.8267 C.ar    1  UNL1        0.0074
      5 C          65.5354   91.8023   13.6491 C.ar    1  UNL1        0.1365
      6 N          66.6171   92.1681   14.6217 N.ar    1  UNL1       -0.1258
      7 N          67.7075   92.8637   13.8621 N.ar    1  UNL1       -0.0406
      8 N          67.2997   92.9279   12.4200 N.ar    1  UNL1       -0.1095
      9 C          65.9572   92.2719   12.2883 C.ar    1  UNL1        0.1838
     10 N          65.0644   92.0415   11.1052 N.ar    1  UNL1       -0.3249
     11 H          61.9939   90.6517   10.2162 H       1  UNL1        0.1437
     12 H          63.1337   91.4193    9.2066 H       1  UNL1        0.1437
     13 H          65.3412   92.3497   10.2122 H       1  UNL1        0.1686
     14 C          63.7987   90.6327   15.1874 C.3     1  UNL1        0.0544
     15 C          63.7704   89.1657   15.4991 C.ar    1  UNL1       -0.0177
     16 C          64.4309   88.1892   14.5717 C.ar    1  UNL1       -0.0039
     17 C          64.4027   86.7222   14.8834 C.ar    1  UNL1       -0.0003
     18 C          63.7139   86.2318   16.1223 C.ar    1  UNL1       -0.0000
     19 C          63.0534   87.2084   17.0497 C.ar    1  UNL1       -0.0003
     20 C          63.0817   88.6754   16.7381 C.ar    1  UNL1       -0.0039
@<TRIPOS>BOND
     1     1     2    1
     2     2     3   ar
     3     3     4   ar
     4     4    14    1
     5    14    15    1
     6    15    16   ar
     7    16    17   ar
     8    17    18   ar
     9    18    19   ar
    10    19    20   ar
    11     4     5   ar
    12     5     6   ar
    13     6     7   ar
    14     7     8   ar
    15     8     9   ar
    16     9    10   ar
    17    10     2   ar
    18    20    15   ar
    19     9     5    1
    20     1    11    1
    21     1    12    1
    22    10    13    1
@<TRIPOS>MOLECULE
*****
 20 22 0 0 0
SMALL
GASTEIGER

@<TRIPOS>ATOM
      1 N          62.4912   81.5222   12.4908 N.pl3   1  UNL1       -0.3441
      2 C          62.7741   82.9781   12.7156 C.ar    1  UNL1        0.1035
      3 C          62.4007   83.9851   11.6686 C.ar    1  UNL1        0.0296
      4 C          62.6836   85.4410   11.8935 C.ar    1  UNL1        0.0074
      5 C          63.3400   85.8897   13.1654 C.ar    1  UNL1        0.1365
      6 N          63.7403   87.2466   13.6637 N.ar    1  UNL1       -0.1258
      7 N          64.3611   87.0782   15.0188 N.ar    1  UNL1       -0.0406
      8 N          64.3445   85.6171   15.3579 N.ar    1  UNL1       -0.1095
      9 C          63.7134   84.8825   14.2125 C.ar    1  UNL1        0.1838
     10 N          63.4305   83.4267   13.9876 N.ar    1  UNL1       -0.3249
     11 H          62.0604   81.2276   11.6559 H       1  UNL1        0.1437
     12 H          62.7363   80.8612   13.1780 H       1  UNL1        0.1437
     13 H          63.6755   82.7658   14.6748 H       1  UNL1        0.1686
     14 C          62.3102   86.4480   10.8463 C.3     1  UNL1        0.0544
     15 C          61.9772   85.9956    9.4555 C.ar    1  UNL1       -0.0177
     16 C          63.0248   85.3314    8.6120 C.ar    1  UNL1       -0.0039
     17 C          62.6920   84.8789    7.2212 C.ar    1  UNL1       -0.0003
     18 C          61.3116   85.0905    6.6739 C.ar    1  UNL1       -0.0000
     19 C          60.2640   85.7547    7.5174 C.ar    1  UNL1       -0.0003
     20 C          60.5968   86.2072    8.9082 C.ar    1  UNL1       -0.0039
@<TRIPOS>BOND
     1     1     2    1
     2     2     3   ar
     3     3     4   ar
     4     4    14    1
     5    14    15    1
     6    15    16   ar
     7    16    17   ar
     8    17    18   ar
     9    18    19   ar
    10    19    20   ar
    11     4     5   ar
    12     5     6   ar
    13     6     7   ar
    14     7     8   ar
    15     8     9   ar
    16     9    10   ar
    17    10     2   ar
    18    20    15   ar
    19     9     5    1
    20     1    11    1
    21     1    12    1
    22    10    13    1
@<TRIPOS>MOLECULE
*****
 20 22 0 0 0
SMALL
GASTEIGER

@<TRIPOS>ATOM
      1 N          59.2621   86.4826    8.0345 N.pl3   1  UNL1       -0.3441
      2 C          60.2541   86.7116    9.1361 C.ar    1  UNL1        0.1035
      3 C          61.2204   85.6279    9.5124 C.ar    1  UNL1        0.0296
      4 C          62.2125   85.8569   10.6141 C.ar    1  UNL1        0.0074
      5 C          62.2381   87.1696   11.3393 C.ar    1  UNL1        0.1365
      6 N          63.0955   87.6813   12.4586 N.ar    1  UNL1       -0.1258
      7 N          62.6591   89.0813   12.7741 N.ar    1  UNL1       -0.0406
      8 N          61.5319   89.4349   11.8497 N.ar    1  UNL1       -0.1095
      9 C          61.2718   88.2534   10.9629 C.ar    1  UNL1        0.1838
     10 N          60.2798   88.0244    9.8613 N.ar    1  UNL1       -0.3249
     11 H          59.2452   85.6210    7.5585 H       1  UNL1        0.1437
     12 H          58.6278   87.1939    7.7875 H       1  UNL1        0.1437
     13 H          59.6455   88.7357    9.6143 H       1  UNL1        0.1686
     14 C          63.1788   84.7730   10.9904 C.3     1  UNL1        0.0544
     15 C          62.8313   83.8039   12.0812 C.ar    1  UNL1       -0.0177
     16 C          62.7324   84.2771   13.5012 C.ar    1  UNL1       -0.0039
     17 C          62.3849   83.3081   14.5922 C.ar    1  UNL1       -0.0003
     18 C          62.1363   81.8659   14.2632 C.ar    1  UNL1       -0.0000
     19 C          62.2352   81.3927   12.8432 C.ar    1  UNL1       -0.0003
     20 C          62.5827   82.3618   11.7522 C.ar    1  UNL1       -0.0039
@<TRIPOS>BOND
     1     1     2    1
     2     2     3   ar
     3     3     4   ar
     4     4    14    1
     5    14    15    1
     6    15    16   ar
     7    16    17   ar
     8    17    18   ar
     9    18    19   ar
    10    19    20   ar
    11     4     5   ar
    12     5     6   ar
    13     6     7   ar
    14     7     8   ar
    15     8     9   ar
    16     9    10   ar
    17    10     2   ar
    18    20    15   ar
    19     9     5    1
    20     1    11    1
    21     1    12    1
    22    10    13    1
@<TRIPOS>MOLECULE
*****
 20 22 0 0 0
SMALL
GASTEIGER

@<TRIPOS>ATOM
      1 N          62.1576   85.6150   10.2623 N.pl3   1  UNL1       -0.3441
      2 C          62.6065   84.7612   11.4111 C.ar    1  UNL1        0.1035
      3 C          63.3456   85.3791   12.5608 C.ar    1  UNL1        0.0296
      4 C          63.7945   84.5253   13.7096 C.ar    1  UNL1        0.0074
      5 C          63.5043   83.0536   13.7085 C.ar    1  UNL1        0.1365
      6 N          63.8198   81.9677   14.6940 N.ar    1  UNL1       -0.1258
      7 N          63.2757   80.6787   14.1533 N.ar    1  UNL1       -0.0406
      8 N          62.6239   80.9680   12.8336 N.ar    1  UNL1       -0.1095
      9 C          62.7652   82.4358   12.5587 C.ar    1  UNL1        0.1838
     10 N          62.3163   83.2896   11.4100 N.ar    1  UNL1       -0.3249
     11 H          62.3481   86.5809   10.2629 H       1  UNL1        0.1437
     12 H          61.6725   85.2094    9.5077 H       1  UNL1        0.1437
     13 H          61.8312   82.8840   10.6554 H       1  UNL1        0.1686
     14 C          64.5336   85.1432   14.8593 C.3     1  UNL1        0.0544
     15 C          64.0814   86.4582   15.4218 C.ar    1  UNL1       -0.0177
     16 C          64.4071   87.7334   14.7022 C.ar    1  UNL1       -0.0039
     17 C          63.9549   89.0484   15.2645 C.ar    1  UNL1       -0.0003
     18 C          63.1771   89.0882   16.5465 C.ar    1  UNL1       -0.0000
     19 C          62.8514   87.8130   17.2660 C.ar    1  UNL1       -0.0003
     20 C          63.3036   86.4980   16.7037 C.ar    1  UNL1       -0.0039
@<TRIPOS>BOND
     1     1     2    1
     2     2     3   ar
     3     3     4   ar
     4     4    14    1
     5    14    15    1
     6    15    16   ar
     7    16    17   ar
     8    17    18   ar
     9    18    19   ar
    10    19    20   ar
    11     4     5   ar
    12     5     6   ar
    13     6     7   ar
    14     7     8   ar
    15     8     9   ar
    16     9    10   ar
    17    10     2   ar
    18    20    15   ar
    19     9     5    1
    20     1    11    1
    21     1    12    1
    22    10    13    1
@<TRIPOS>MOLECULE
*****
 20 22 0 0 0
SMALL
GASTEIGER

@<TRIPOS>ATOM
      1 N          59.8585   89.6455    7.8002 N.pl3   1  UNL1       -0.3441
      2 C          60.6644   89.3110    9.0203 C.ar    1  UNL1        0.1035
      3 C          60.5897   87.9359    9.6147 C.ar    1  UNL1        0.0296
      4 C          61.3956   87.6014   10.8348 C.ar    1  UNL1        0.0074
      5 C          62.2761   88.6421   11.4605 C.ar    1  UNL1        0.1365
      6 N          63.1791   88.6049   12.6578 N.ar    1  UNL1       -0.1258
      7 N          63.8117   89.9571   12.8033 N.ar    1  UNL1       -0.0406
      8 N          63.2998   90.8300   11.6960 N.ar    1  UNL1       -0.1095
      9 C          62.3508   90.0173   10.8661 C.ar    1  UNL1        0.1838
     10 N          61.5449   90.3517    9.6460 N.ar    1  UNL1       -0.3249
     11 H          59.2805   88.9625    7.3894 H       1  UNL1        0.1437
     12 H          59.9075   90.5481    7.4101 H       1  UNL1        0.1437
     13 H          61.5939   91.2543    9.2559 H       1  UNL1        0.1686
     14 C          61.3209   86.2261   11.4292 C.3     1  UNL1        0.0544
     15 C          62.3216   85.1819   11.0316 C.ar    1  UNL1       -0.0177
     16 C          62.7596   85.0690    9.6014 C.ar    1  UNL1       -0.0039
     17 C          63.7603   84.0248    9.2037 C.ar    1  UNL1       -0.0003
     18 C          64.3230   83.0934   10.2361 C.ar    1  UNL1       -0.0000
     19 C          63.8850   83.2064   11.6663 C.ar    1  UNL1       -0.0003
     20 C          62.8843   84.2506   12.0640 C.ar    1  UNL1       -0.0039
@<TRIPOS>BOND
     1     1     2    1
     2     2     3   ar
     3     3     4   ar
     4     4    14    1
     5    14    15    1
     6    15    16   ar
     7    16    17   ar
     8    17    18   ar
     9    18    19   ar
    10    19    20   ar
    11     4     5   ar
    12     5     6   ar
    13     6     7   ar
    14     7     8   ar
    15     8     9   ar
    16     9    10   ar
    17    10     2   ar
    18    20    15   ar
    19     9     5    1
    20     1    11    1
    21     1    12    1
    22    10    13    1
@<TRIPOS>MOLECULE
*****
 20 22 0 0 0
SMALL
GASTEIGER

@<TRIPOS>ATOM
      1 N          62.6849   78.6402    9.8200 N.pl3   1  UNL1       -0.3441
      2 C          62.8975   79.8148   10.7285 C.ar    1  UNL1        0.1035
      3 C          63.3761   81.1206   10.1666 C.ar    1  UNL1        0.0296
      4 C          63.5887   82.2952   11.0751 C.ar    1  UNL1        0.0074
      5 C          63.3226   82.1638   12.5454 C.ar    1  UNL1        0.1365
      6 N          63.4412   83.1401   13.6780 N.ar    1  UNL1       -0.1258
      7 N          63.0358   82.4377   14.9398 N.ar    1  UNL1       -0.0406
      8 N          62.6667   81.0272   14.5871 N.ar    1  UNL1       -0.1095
      9 C          62.8440   80.8579   13.1073 C.ar    1  UNL1        0.1838
     10 N          62.6314   79.6835   12.1988 N.ar    1  UNL1       -0.3249
     11 H          62.8595   78.7264    8.8549 H       1  UNL1        0.1437
     12 H          62.3707   77.7832   10.1888 H       1  UNL1        0.1437
     13 H          62.3172   78.8264   12.5675 H       1  UNL1        0.1686
     14 C          64.0674   83.6010   10.5132 C.3     1  UNL1        0.0544
     15 C          63.0757   84.6404   10.0818 C.ar    1  UNL1       -0.0177
     16 C          62.9407   84.9912    8.6297 C.ar    1  UNL1       -0.0039
     17 C          61.9490   86.0306    8.1982 C.ar    1  UNL1       -0.0003
     18 C          61.0924   86.7192    9.2189 C.ar    1  UNL1       -0.0000
     19 C          61.2273   86.3684   10.6711 C.ar    1  UNL1       -0.0003
     20 C          62.2190   85.3290   11.1025 C.ar    1  UNL1       -0.0039
@<TRIPOS>BOND
     1     1     2    1
     2     2     3   ar
     3     3     4   ar
     4     4    14    1
     5    14    15    1
     6    15    16   ar
     7    16    17   ar
     8    17    18   ar
     9    18    19   ar
    10    19    20   ar
    11     4     5   ar
    12     5     6   ar
    13     6     7   ar
    14     7     8   ar
    15     8     9   ar
    16     9    10   ar
    17    10     2   ar
    18    20    15   ar
    19     9     5    1
    20     1    11    1
    21     1    12    1
    22    10    13    1
