@<TRIPOS>MOLECULE
*****
 45 49 0 0 0
SMALL
GASTEIGER

@<TRIPOS>ATOM
      1 C          64.2265   91.4253   11.3728 C.2     1  UNL1        0.2411
      2 O          63.4861   91.7014   10.0979 O.2     1  UNL1       -0.2733
      3 N          63.7956   90.2958   12.2609 N.am    1  UNL1       -0.2966
      4 H          64.2815   90.1147   13.0977 H       1  UNL1        0.1499
      5 C          65.3978   92.2787   11.7598 C.3     1  UNL1        0.1555
      6 C          66.5285   94.3867   10.7457 C.2     1  UNL1        0.4017
      7 O          67.6935   93.5503   10.3061 O.2     1  UNL1       -0.2264
      8 N          65.3806   93.7508   11.4725 N.am    1  UNL1       -0.2637
      9 H          64.6160   94.2998   11.7610 H       1  UNL1        0.1532
     10 O          66.5113   95.8588   10.4585 O.3     1  UNL1       -0.4419
     11 C          67.3786   96.0364    8.5308 C.3     1  UNL1        0.0437
     12 C          66.0392   96.3572    9.1248 C.3     1  UNL1        0.1378
     13 C          64.6997   96.6780    9.7189 C.3     1  UNL1        0.0437
     14 C          65.5671   96.8556    7.7911 C.3     1  UNL1        0.0437
     15 C          66.5864   91.6600   12.4340 C.3     1  UNL1        0.0585
     16 C          67.0249   92.1523   13.7813 C.ar    1  UNL1        0.0142
     17 C          68.4269   92.6478   13.9789 C.ar    1  UNL1       -0.0012
     18 C          68.8654   93.1401   15.3262 C.ar    1  UNL1       -0.0001
     19 C          67.9020   93.1369   16.4759 C.ar    1  UNL1        0.0031
     20 C          66.5000   92.6415   16.2783 C.ar    1  UNL1        0.0369
     21 C          66.0615   92.1492   14.9310 C.ar    1  UNL1        0.1428
     22 O          64.6595   91.6537   14.7334 O.3     1  UNL1       -0.4048
     23 C          64.1156   90.5699   15.6164 C.3     1  UNL1        0.5753
     24 F          63.5717   89.4862   16.4994 F       1  UNL1       -0.1328
     25 F          63.3901   91.5987   16.4321 F       1  UNL1       -0.1328
     26 F          64.8412   89.5412   14.8007 F       1  UNL1       -0.1328
     27 C          62.6243   89.4424   11.8740 C.3     1  UNL1        0.1543
     28 C          62.7014   87.9517   12.0210 C.ar    1  UNL1        0.1417
     29 N          63.5997   87.2037   12.9610 N.ar    1  UNL1       -0.2276
     30 C          63.3473   85.7369   12.7749 C.ar    1  UNL1        0.1167
     31 C          63.9412   84.5252   13.4298 C.ar    1  UNL1        0.0238
     32 C          63.4808   83.1548   13.0297 C.ar    1  UNL1        0.0223
     33 C          62.4265   82.9962   11.9746 C.ar    1  UNL1        0.1006
     34 N          61.8325   84.2079   11.3197 N.ar    1  UNL1       -0.2252
     35 C          62.2929   85.5782   11.7198 C.ar    1  UNL1        0.1626
     36 N          61.8938   86.9470   11.2539 N.ar    1  UNL1       -0.2990
     37 C          60.8672   87.2568   10.2050 C.3     1  UNL1        0.0898
     38 C          59.6570   87.8538    9.5501 C.3     1  UNL1        0.0273
     39 C          59.9818   88.1914   10.9750 C.3     1  UNL1        0.0273
     40 C          61.3959   86.4299    9.0708 C.ar    1  UNL1       -0.0037
     41 C          60.4640   85.9377    8.0035 C.ar    1  UNL1       -0.0025
     42 C          60.9927   85.1108    6.8691 C.ar    1  UNL1       -0.0003
     43 C          62.4534   84.7760    6.8023 C.ar    1  UNL1       -0.0000
     44 C          63.3853   85.2682    7.8697 C.ar    1  UNL1       -0.0003
     45 C          62.8566   86.0951    9.0039 C.ar    1  UNL1       -0.0025
@<TRIPOS>BOND
     1    11    12    1
     2    12    13    1
     3    12    14    1
     4    12    10    1
     5    10     6    1
     6     6     7    2
     7     6     8   am
     8     8     5    1
     9     5    15    1
    10    15    16    1
    11    16    17   ar
    12    17    18   ar
    13    18    19   ar
    14    19    20   ar
    15    20    21   ar
    16    21    22    1
    17    22    23    1
    18    23    24    1
    19    23    25    1
    20    23    26    1
    21     5     1    1
    22     1     2    2
    23     1     3   am
    24     3    27    1
    25    27    28    1
    26    28    29   ar
    27    29    30   ar
    28    30    31   ar
    29    31    32   ar
    30    32    33   ar
    31    33    34   ar
    32    34    35   ar
    33    35    36   ar
    34    36    37    1
    35    37    40    1
    36    40    41   ar
    37    41    42   ar
    38    42    43   ar
    39    43    44   ar
    40    44    45   ar
    41    37    38    1
    42    38    39    1
    43    21    16   ar
    44    36    28   ar
    45    39    37    1
    46    35    30   ar
    47    45    40   ar
    48     8     9    1
    49     3     4    1
@<TRIPOS>MOLECULE
*****
 45 49 0 0 0
SMALL
GASTEIGER

@<TRIPOS>ATOM
      1 C          62.7769   89.5104   11.4690 C.2     1  UNL1        0.2411
      2 O          62.1438   90.1426   12.6729 O.2     1  UNL1       -0.2733
      3 N          63.7374   90.2966   10.6267 N.am    1  UNL1       -0.2966
      4 H          64.1529   89.8817    9.8366 H       1  UNL1        0.1499
      5 C          62.4496   88.0919   11.1073 C.3     1  UNL1        0.1555
      6 C          62.4886   85.6494   11.9922 C.2     1  UNL1        0.4017
      7 O          63.1475   85.1997   10.7219 O.2     1  UNL1       -0.2264
      8 N          62.1397   87.0955   12.1849 N.am    1  UNL1       -0.2637
      9 H          61.7072   87.3907   13.0186 H       1  UNL1        0.1532
     10 O          62.1786   84.6531   13.0697 O.3     1  UNL1       -0.4419
     11 C          63.9768   84.8332   14.1805 C.3     1  UNL1        0.0437
     12 C          63.2376   83.6984   13.5356 C.3     1  UNL1        0.1378
     13 C          62.4985   82.5637   12.8907 C.3     1  UNL1        0.0437
     14 C          64.2967   82.7438   14.0015 C.3     1  UNL1        0.0437
     15 C          62.4324   87.6698    9.6680 C.3     1  UNL1        0.0585
     16 C          61.1865   87.8426    8.8507 C.ar    1  UNL1        0.0142
     17 C          60.5020   89.1763    8.7996 C.ar    1  UNL1       -0.0012
     18 C          59.2562   89.3491    7.9822 C.ar    1  UNL1       -0.0001
     19 C          58.6949   88.1882    7.2160 C.ar    1  UNL1        0.0031
     20 C          59.3794   86.8545    7.2671 C.ar    1  UNL1        0.0369
     21 C          60.6251   86.6817    8.0844 C.ar    1  UNL1        0.1428
     22 O          61.3097   85.3479    8.1355 O.3     1  UNL1       -0.4048
     23 C          62.1465   84.8895    6.9781 C.3     1  UNL1        0.5753
     24 F          62.9833   84.4312    5.8206 F       1  UNL1       -0.1328
     25 F          63.3767   85.4078    7.6622 F       1  UNL1       -0.1328
     26 F          60.9163   84.3713    6.2939 F       1  UNL1       -0.1328
     27 C          64.0647   91.7151   10.9884 C.3     1  UNL1        0.1543
     28 C          64.9902   92.0028   12.1332 C.ar    1  UNL1        0.1417
     29 N          64.6422   91.9221   13.5900 N.ar    1  UNL1       -0.2276
     30 C          65.8632   92.2911   14.3794 C.ar    1  UNL1        0.1167
     31 C          66.1134   92.3858   15.8553 C.ar    1  UNL1        0.0238
     32 C          67.4662   92.7894   16.3622 C.ar    1  UNL1        0.0223
     33 C          68.5688   93.0982   15.3932 C.ar    1  UNL1        0.1006
     34 N          68.3186   93.0035   13.9173 N.ar    1  UNL1       -0.2252
     35 C          66.9658   92.5999   13.4104 C.ar    1  UNL1        0.1626
     36 N          66.4262   92.4217   12.0222 N.ar    1  UNL1       -0.2990
     37 C          67.1888   92.6265   10.7469 C.3     1  UNL1        0.0898
     38 C          68.0910   92.3419    9.5828 C.3     1  UNL1        0.0273
     39 C          67.8556   91.2884   10.6243 C.3     1  UNL1        0.0273
     40 C          66.7870   94.0357   10.4265 C.ar    1  UNL1       -0.0037
     41 C          66.0691   94.8624   11.4517 C.ar    1  UNL1       -0.0025
     42 C          65.6672   96.2716   11.1314 C.ar    1  UNL1       -0.0003
     43 C          65.9833   96.8541    9.7857 C.ar    1  UNL1       -0.0000
     44 C          66.7012   96.0274    8.7604 C.ar    1  UNL1       -0.0003
     45 C          67.1031   94.6182    9.0808 C.ar    1  UNL1       -0.0025
@<TRIPOS>BOND
     1    11    12    1
     2    12    13    1
     3    12    14    1
     4    12    10    1
     5    10     6    1
     6     6     7    2
     7     6     8   am
     8     8     5    1
     9     5    15    1
    10    15    16    1
    11    16    17   ar
    12    17    18   ar
    13    18    19   ar
    14    19    20   ar
    15    20    21   ar
    16    21    22    1
    17    22    23    1
    18    23    24    1
    19    23    25    1
    20    23    26    1
    21     5     1    1
    22     1     2    2
    23     1     3   am
    24     3    27    1
    25    27    28    1
    26    28    29   ar
    27    29    30   ar
    28    30    31   ar
    29    31    32   ar
    30    32    33   ar
    31    33    34   ar
    32    34    35   ar
    33    35    36   ar
    34    36    37    1
    35    37    40    1
    36    40    41   ar
    37    41    42   ar
    38    42    43   ar
    39    43    44   ar
    40    44    45   ar
    41    37    38    1
    42    38    39    1
    43    21    16   ar
    44    36    28   ar
    45    39    37    1
    46    35    30   ar
    47    45    40   ar
    48     8     9    1
    49     3     4    1
@<TRIPOS>MOLECULE
*****
 45 49 0 0 0
SMALL
GASTEIGER

@<TRIPOS>ATOM
      1 C          63.7153   86.8835   13.7114 C.2     1  UNL1        0.2411
      2 O          64.6480   86.5558   14.8396 O.2     1  UNL1       -0.2733
      3 N          63.4887   88.3127   13.3167 N.am    1  UNL1       -0.2966
      4 H          62.8766   88.5277   12.5762 H       1  UNL1        0.1499
      5 C          63.0093   85.7818   12.9780 C.3     1  UNL1        0.1555
      6 C          62.6264   83.7018   14.4871 C.2     1  UNL1        0.4017
      7 O          61.6596   84.4866   15.3234 O.2     1  UNL1       -0.2264
      8 N          63.3013   84.3495   13.3144 N.am    1  UNL1       -0.2637
      9 H          63.9359   83.8345   12.7654 H       1  UNL1        0.1532
     10 O          62.9184   82.2695   14.8234 O.3     1  UNL1       -0.4419
     11 C          61.2192   81.1722   14.1844 C.3     1  UNL1        0.0437
     12 C          62.6707   81.1949   13.8068 C.3     1  UNL1        0.1378
     13 C          64.1221   81.2175   13.4291 C.3     1  UNL1        0.0437
     14 C          62.4228   80.1202   12.7900 C.3     1  UNL1        0.0437
     15 C          62.0112   86.1125   11.9082 C.3     1  UNL1        0.0585
     16 C          62.2625   85.6893   10.4912 C.ar    1  UNL1        0.0142
     17 C          63.2602   84.6085   10.1971 C.ar    1  UNL1       -0.0012
     18 C          63.5115   84.1853    8.7802 C.ar    1  UNL1       -0.0001
     19 C          62.7652   84.8429    7.6574 C.ar    1  UNL1        0.0031
     20 C          61.7675   85.9236    7.9516 C.ar    1  UNL1        0.0369
     21 C          61.5162   86.3468    9.3685 C.ar    1  UNL1        0.1428
     22 O          60.5185   87.4276    9.6627 O.3     1  UNL1       -0.4048
     23 C          59.6976   88.0131    8.5521 C.3     1  UNL1        0.5753
     24 F          58.8768   88.5986    7.4415 F       1  UNL1       -0.1328
     25 F          58.8145   86.8008    8.5657 F       1  UNL1       -0.1328
     26 F          60.5808   89.2255    8.5385 F       1  UNL1       -0.1328
     27 C          64.1947   89.4144   14.0500 C.3     1  UNL1        0.1543
     28 C          64.6018   90.6602   13.3206 C.ar    1  UNL1        0.1417
     29 N          64.4681   90.9024   11.8463 N.ar    1  UNL1       -0.2276
     30 C          64.9977   92.2745   11.5520 C.ar    1  UNL1        0.1167
     31 C          65.1197   93.0505   10.2741 C.ar    1  UNL1        0.0238
     32 C          65.7028   94.4324   10.2886 C.ar    1  UNL1        0.0223
     33 C          66.1639   95.0384   11.5810 C.ar    1  UNL1        0.1006
     34 N          66.0419   94.2624   12.8589 N.ar    1  UNL1       -0.2252
     35 C          65.4588   92.8805   12.8443 C.ar    1  UNL1        0.1626
     36 N          65.2141   91.8828   13.9374 N.ar    1  UNL1       -0.2990
     37 C          65.5269   92.0741   15.3919 C.3     1  UNL1        0.0898
     38 C          65.3311   92.1563   16.8768 C.3     1  UNL1        0.0273
     39 C          64.1713   91.8262   15.9847 C.3     1  UNL1        0.0273
     40 C          66.9909   92.3885   15.3044 C.ar    1  UNL1       -0.0037
     41 C          67.8683   91.6185   14.3625 C.ar    1  UNL1       -0.0025
     42 C          69.3324   91.9329   14.2749 C.ar    1  UNL1       -0.0003
     43 C          69.9190   93.0172   15.1294 C.ar    1  UNL1       -0.0000
     44 C          69.0416   93.7872   16.0714 C.ar    1  UNL1       -0.0003
     45 C          67.5775   93.4728   16.1589 C.ar    1  UNL1       -0.0025
@<TRIPOS>BOND
     1    11    12    1
     2    12    13    1
     3    12    14    1
     4    12    10    1
     5    10     6    1
     6     6     7    2
     7     6     8   am
     8     8     5    1
     9     5    15    1
    10    15    16    1
    11    16    17   ar
    12    17    18   ar
    13    18    19   ar
    14    19    20   ar
    15    20    21   ar
    16    21    22    1
    17    22    23    1
    18    23    24    1
    19    23    25    1
    20    23    26    1
    21     5     1    1
    22     1     2    2
    23     1     3   am
    24     3    27    1
    25    27    28    1
    26    28    29   ar
    27    29    30   ar
    28    30    31   ar
    29    31    32   ar
    30    32    33   ar
    31    33    34   ar
    32    34    35   ar
    33    35    36   ar
    34    36    37    1
    35    37    40    1
    36    40    41   ar
    37    41    42   ar
    38    42    43   ar
    39    43    44   ar
    40    44    45   ar
    41    37    38    1
    42    38    39    1
    43    21    16   ar
    44    36    28   ar
    45    39    37    1
    46    35    30   ar
    47    45    40   ar
    48     8     9    1
    49     3     4    1
@<TRIPOS>MOLECULE
*****
 45 49 0 0 0
SMALL
GASTEIGER

@<TRIPOS>ATOM
      1 C          62.9366   89.5861   11.5466 C.2     1  UNL1        0.2411
      2 O          62.4573   90.1203   12.8637 O.2     1  UNL1       -0.2733
      3 N          63.7705   90.4485   10.6462 N.am    1  UNL1       -0.2966
      4 H          64.0851   90.0979    9.7817 H       1  UNL1        0.1499
      5 C          62.5818   88.1895   11.1298 C.3     1  UNL1        0.1555
      6 C          62.5810   85.7538   12.0340 C.2     1  UNL1        0.4017
      7 O          63.4386   85.3253   10.8803 O.2     1  UNL1       -0.2264
      8 N          62.1526   87.1860   12.1587 N.am    1  UNL1       -0.2637
      9 H          61.5898   87.4672   12.9159 H       1  UNL1        0.1532
     10 O          62.1518   84.7503   13.0629 O.3     1  UNL1       -0.4419
     11 C          62.4077   82.6789   12.6836 C.3     1  UNL1        0.0437
     12 C          63.1126   83.6972   13.5298 C.3     1  UNL1        0.1378
     13 C          63.8174   84.7155   14.3761 C.3     1  UNL1        0.0437
     14 C          64.0733   82.6441   13.9968 C.3     1  UNL1        0.0437
     15 C          62.6563   87.7965    9.6842 C.3     1  UNL1        0.0585
     16 C          61.4123   87.3849    8.9538 C.ar    1  UNL1        0.0142
     17 C          61.3769   86.0850    8.2062 C.ar    1  UNL1       -0.0012
     18 C          60.1330   85.6736    7.4759 C.ar    1  UNL1       -0.0001
     19 C          58.9246   86.5620    7.4932 C.ar    1  UNL1        0.0031
     20 C          58.9600   87.8619    8.2407 C.ar    1  UNL1        0.0369
     21 C          60.2039   88.2734    8.9711 C.ar    1  UNL1        0.1428
     22 O          60.2394   89.5734    9.7187 O.3     1  UNL1       -0.4048
     23 C          59.5907   89.6811   11.0669 C.3     1  UNL1        0.5753
     24 F          58.9421   89.7888   12.4151 F       1  UNL1       -0.1328
     25 F          59.3248   88.2049   11.0569 F       1  UNL1       -0.1328
     26 F          59.8567   91.1573   11.0769 F       1  UNL1       -0.1328
     27 C          64.1253   91.8451   11.0629 C.3     1  UNL1        0.1543
     28 C          65.0815   92.0695   12.1966 C.ar    1  UNL1        0.1417
     29 N          64.7568   91.9663   13.6574 N.ar    1  UNL1       -0.2276
     30 C          66.0048   92.2695   14.4323 C.ar    1  UNL1        0.1167
     31 C          66.2848   92.3185   15.9050 C.ar    1  UNL1        0.0238
     32 C          67.6609   92.6581   16.3959 C.ar    1  UNL1        0.0223
     33 C          68.7570   92.9487   15.4140 C.ar    1  UNL1        0.1006
     34 N          68.4770   92.8996   13.9412 N.ar    1  UNL1       -0.2252
     35 C          67.1009   92.5600   13.4503 C.ar    1  UNL1        0.1626
     36 N          66.5302   92.4364   12.0687 N.ar    1  UNL1       -0.2990
     37 C          67.2772   92.6434   10.7845 C.3     1  UNL1        0.0898
     38 C          68.1698   92.3629    9.6121 C.3     1  UNL1        0.0273
     39 C          67.9560   91.3114   10.6602 C.3     1  UNL1        0.0273
     40 C          66.8580   94.0472   10.4626 C.ar    1  UNL1       -0.0037
     41 C          67.1134   94.6116    9.0966 C.ar    1  UNL1       -0.0025
     42 C          66.6942   96.0155    8.7747 C.ar    1  UNL1       -0.0003
     43 C          66.0196   96.8548    9.8190 C.ar    1  UNL1       -0.0000
     44 C          65.7642   96.2903   11.1851 C.ar    1  UNL1       -0.0003
     45 C          66.1834   94.8865   11.5069 C.ar    1  UNL1       -0.0025
@<TRIPOS>BOND
     1    11    12    1
     2    12    13    1
     3    12    14    1
     4    12    10    1
     5    10     6    1
     6     6     7    2
     7     6     8   am
     8     8     5    1
     9     5    15    1
    10    15    16    1
    11    16    17   ar
    12    17    18   ar
    13    18    19   ar
    14    19    20   ar
    15    20    21   ar
    16    21    22    1
    17    22    23    1
    18    23    24    1
    19    23    25    1
    20    23    26    1
    21     5     1    1
    22     1     2    2
    23     1     3   am
    24     3    27    1
    25    27    28    1
    26    28    29   ar
    27    29    30   ar
    28    30    31   ar
    29    31    32   ar
    30    32    33   ar
    31    33    34   ar
    32    34    35   ar
    33    35    36   ar
    34    36    37    1
    35    37    40    1
    36    40    41   ar
    37    41    42   ar
    38    42    43   ar
    39    43    44   ar
    40    44    45   ar
    41    37    38    1
    42    38    39    1
    43    21    16   ar
    44    36    28   ar
    45    39    37    1
    46    35    30   ar
    47    45    40   ar
    48     8     9    1
    49     3     4    1
@<TRIPOS>MOLECULE
*****
 45 49 0 0 0
SMALL
GASTEIGER

@<TRIPOS>ATOM
      1 C          62.7448   89.4530   11.8304 C.2     1  UNL1        0.2411
      2 O          62.1484   90.2034   12.9842 O.2     1  UNL1       -0.2733
      3 N          63.7169   90.1353   10.9142 N.am    1  UNL1       -0.2966
      4 H          64.1084   89.6428   10.1569 H       1  UNL1        0.1499
      5 C          62.3691   88.0203   11.5929 C.3     1  UNL1        0.1555
      6 C          63.8360   87.2331   13.5875 C.2     1  UNL1        0.4017
      7 O          63.8669   88.6357   14.1183 O.2     1  UNL1       -0.2264
      8 N          63.0871   86.9254   12.3247 N.am    1  UNL1       -0.2637
      9 H          63.0668   86.0049   11.9763 H       1  UNL1        0.1532
     10 O          64.5540   86.1382   14.3193 O.3     1  UNL1       -0.4419
     11 C          64.2681   84.1870   13.5377 C.3     1  UNL1        0.0437
     12 C          63.8052   84.9168   14.7637 C.3     1  UNL1        0.1378
     13 C          63.3423   85.6466   15.9896 C.3     1  UNL1        0.0437
     14 C          63.0564   83.6953   15.2080 C.3     1  UNL1        0.0437
     15 C          61.2754   87.6827   10.6234 C.3     1  UNL1        0.0585
     16 C          61.5422   86.7343    9.4923 C.ar    1  UNL1        0.0142
     17 C          62.7623   85.8621    9.5168 C.ar    1  UNL1       -0.0012
     18 C          63.0291   84.9137    8.3857 C.ar    1  UNL1       -0.0001
     19 C          62.0758   84.8376    7.2301 C.ar    1  UNL1        0.0031
     20 C          60.8557   85.7098    7.2056 C.ar    1  UNL1        0.0369
     21 C          60.5889   86.6581    8.3367 C.ar    1  UNL1        0.1428
     22 O          59.3688   87.5304    8.3122 O.3     1  UNL1       -0.4048
     23 C          59.3727   88.8033    7.5187 C.3     1  UNL1        0.5753
     24 F          59.3765   90.0762    6.7252 F       1  UNL1       -0.1328
     25 F          59.7640   89.5685    8.7481 F       1  UNL1       -0.1328
     26 F          58.9813   88.0381    6.2893 F       1  UNL1       -0.1328
     27 C          64.0926   91.5679   11.1517 C.3     1  UNL1        0.1543
     28 C          65.0183   91.9238   12.2770 C.ar    1  UNL1        0.1417
     29 N          64.6949   91.8549   13.7401 N.ar    1  UNL1       -0.2276
     30 C          65.9067   92.2997   14.5042 C.ar    1  UNL1        0.1167
     31 C          66.1722   92.4360   15.9742 C.ar    1  UNL1        0.0238
     32 C          67.5101   92.9162   16.4532 C.ar    1  UNL1        0.0223
     33 C          68.5825   93.2599   15.4624 C.ar    1  UNL1        0.1006
     34 N          68.3170   93.1235   13.9924 N.ar    1  UNL1       -0.2252
     35 C          66.9791   92.6434   13.5133 C.ar    1  UNL1        0.1626
     36 N          66.4300   92.4111   12.1369 N.ar    1  UNL1       -0.2990
     37 C          67.1639   92.6280   10.8467 C.3     1  UNL1        0.0898
     38 C          68.0420   92.3555    9.6616 C.3     1  UNL1        0.0273
     39 C          67.8341   91.2940   10.7008 C.3     1  UNL1        0.0273
     40 C          66.7486   94.0373   10.5446 C.ar    1  UNL1       -0.0037
     41 C          66.9215   94.5898    9.1608 C.ar    1  UNL1       -0.0025
     42 C          66.5061   95.9992    8.8586 C.ar    1  UNL1       -0.0003
     43 C          65.9179   96.8560    9.9403 C.ar    1  UNL1       -0.0000
     44 C          65.7450   96.3034   11.3241 C.ar    1  UNL1       -0.0003
     45 C          66.1603   94.8941   11.6262 C.ar    1  UNL1       -0.0025
@<TRIPOS>BOND
     1    11    12    1
     2    12    13    1
     3    12    14    1
     4    12    10    1
     5    10     6    1
     6     6     7    2
     7     6     8   am
     8     8     5    1
     9     5    15    1
    10    15    16    1
    11    16    17   ar
    12    17    18   ar
    13    18    19   ar
    14    19    20   ar
    15    20    21   ar
    16    21    22    1
    17    22    23    1
    18    23    24    1
    19    23    25    1
    20    23    26    1
    21     5     1    1
    22     1     2    2
    23     1     3   am
    24     3    27    1
    25    27    28    1
    26    28    29   ar
    27    29    30   ar
    28    30    31   ar
    29    31    32   ar
    30    32    33   ar
    31    33    34   ar
    32    34    35   ar
    33    35    36   ar
    34    36    37    1
    35    37    40    1
    36    40    41   ar
    37    41    42   ar
    38    42    43   ar
    39    43    44   ar
    40    44    45   ar
    41    37    38    1
    42    38    39    1
    43    21    16   ar
    44    36    28   ar
    45    39    37    1
    46    35    30   ar
    47    45    40   ar
    48     8     9    1
    49     3     4    1
@<TRIPOS>MOLECULE
*****
 45 49 0 0 0
SMALL
GASTEIGER

@<TRIPOS>ATOM
      1 C          62.9224   89.9233   12.2973 C.2     1  UNL1        0.2411
      2 O          62.7687   90.6926   13.5758 O.2     1  UNL1       -0.2733
      3 N          63.6843   90.5188   11.1506 N.am    1  UNL1       -0.2966
      4 H          63.7852   90.0139   10.3115 H       1  UNL1        0.1499
      5 C          62.3141   88.5585   12.1655 C.3     1  UNL1        0.1555
      6 C          63.8231   87.2036   13.7895 C.2     1  UNL1        0.4017
      7 O          63.6888   88.2871   14.8181 O.2     1  UNL1       -0.2264
      8 N          63.1357   87.3393   12.4632 N.am    1  UNL1       -0.2637
      9 H          63.2237   86.6282   11.7880 H       1  UNL1        0.1532
     10 O          64.6446   85.9844   14.0872 O.3     1  UNL1       -0.4419
     11 C          63.6211   85.4560   15.8685 C.3     1  UNL1        0.0437
     12 C          63.9819   84.7405   14.6005 C.3     1  UNL1        0.1378
     13 C          64.3427   84.0251   13.3325 C.3     1  UNL1        0.0437
     14 C          63.3192   83.4966   15.1139 C.3     1  UNL1        0.0437
     15 C          60.8843   88.4129   11.7359 C.3     1  UNL1        0.0585
     16 C          60.5602   88.0701   10.3120 C.ar    1  UNL1        0.0142
     17 C          60.0200   89.1237    9.3912 C.ar    1  UNL1       -0.0012
     18 C          59.6959   88.7809    7.9674 C.ar    1  UNL1       -0.0001
     19 C          59.9120   87.3844    7.4643 C.ar    1  UNL1        0.0031
     20 C          60.4522   86.3307    8.3851 C.ar    1  UNL1        0.0369
     21 C          60.7763   86.6736    9.8090 C.ar    1  UNL1        0.1428
     22 O          61.3165   85.6199   10.7298 O.3     1  UNL1       -0.4048
     23 C          62.5499   84.8544   10.3520 C.3     1  UNL1        0.5753
     24 F          63.7834   84.0889    9.9742 F       1  UNL1       -0.1328
     25 F          62.9680   85.9749    9.4467 F       1  UNL1       -0.1328
     26 F          62.1319   83.7339   11.2574 F       1  UNL1       -0.1328
     27 C          64.2925   91.8836   11.2824 C.3     1  UNL1        0.1543
     28 C          65.2704   92.1657   12.3843 C.ar    1  UNL1        0.1417
     29 N          64.9679   92.1638   13.8535 N.ar    1  UNL1       -0.2276
     30 C          66.2331   92.4962   14.5877 C.ar    1  UNL1        0.1167
     31 C          66.5377   92.6368   16.0496 C.ar    1  UNL1        0.0238
     32 C          67.9268   92.9848   16.4961 C.ar    1  UNL1        0.0223
     33 C          69.0111   93.1921   15.4807 C.ar    1  UNL1        0.1006
     34 N          68.7065   93.0515   14.0187 N.ar    1  UNL1       -0.2252
     35 C          67.3174   92.7035   13.5722 C.ar    1  UNL1        0.1626
     36 N          66.7225   92.4993   12.2105 N.ar    1  UNL1       -0.2990
     37 C          67.4516   92.6093   10.9043 C.3     1  UNL1        0.0898
     38 C          68.2970   92.2277    9.7254 C.3     1  UNL1        0.0273
     39 C          68.0395   91.2319   10.8172 C.3     1  UNL1        0.0273
     40 C          67.1171   94.0248   10.5376 C.ar    1  UNL1       -0.0037
     41 C          67.6670   94.6228    9.2767 C.ar    1  UNL1       -0.0025
     42 C          67.3325   96.0384    8.9100 C.ar    1  UNL1       -0.0003
     43 C          66.4481   96.8557    9.8043 C.ar    1  UNL1       -0.0000
     44 C          65.8982   96.2576   11.0653 C.ar    1  UNL1       -0.0003
     45 C          66.2327   94.8421   11.4319 C.ar    1  UNL1       -0.0025
@<TRIPOS>BOND
     1    11    12    1
     2    12    13    1
     3    12    14    1
     4    12    10    1
     5    10     6    1
     6     6     7    2
     7     6     8   am
     8     8     5    1
     9     5    15    1
    10    15    16    1
    11    16    17   ar
    12    17    18   ar
    13    18    19   ar
    14    19    20   ar
    15    20    21   ar
    16    21    22    1
    17    22    23    1
    18    23    24    1
    19    23    25    1
    20    23    26    1
    21     5     1    1
    22     1     2    2
    23     1     3   am
    24     3    27    1
    25    27    28    1
    26    28    29   ar
    27    29    30   ar
    28    30    31   ar
    29    31    32   ar
    30    32    33   ar
    31    33    34   ar
    32    34    35   ar
    33    35    36   ar
    34    36    37    1
    35    37    40    1
    36    40    41   ar
    37    41    42   ar
    38    42    43   ar
    39    43    44   ar
    40    44    45   ar
    41    37    38    1
    42    38    39    1
    43    21    16   ar
    44    36    28   ar
    45    39    37    1
    46    35    30   ar
    47    45    40   ar
    48     8     9    1
    49     3     4    1
@<TRIPOS>MOLECULE
*****
 45 49 0 0 0
SMALL
GASTEIGER

@<TRIPOS>ATOM
      1 C          64.0872   91.3223   12.3480 C.2     1  UNL1        0.2411
      2 O          63.8327   91.2933   13.8259 O.2     1  UNL1       -0.2733
      3 N          63.2800   90.4523   11.4307 N.am    1  UNL1       -0.2966
      4 H          63.4471   90.4714   10.4607 H       1  UNL1        0.1499
      5 C          65.1490   92.2215   11.7873 C.3     1  UNL1        0.1555
      6 C          66.8618   93.1800   13.4895 C.2     1  UNL1        0.4017
      7 O          65.8238   94.1379   13.9946 O.2     1  UNL1       -0.2264
      8 N          66.5244   92.2218   12.3858 N.am    1  UNL1       -0.2637
      9 H          67.2056   91.5931   12.0543 H       1  UNL1        0.1532
     10 O          68.2372   93.1804   14.0881 O.3     1  UNL1       -0.4419
     11 C          69.2097   93.8659   15.8442 C.3     1  UNL1        0.0437
     12 C          68.4563   92.6257   15.4644 C.3     1  UNL1        0.1378
     13 C          67.7028   91.3856   15.0846 C.3     1  UNL1        0.0437
     14 C          68.6754   92.0711   16.8408 C.3     1  UNL1        0.0437
     15 C          64.8353   93.1202   10.6281 C.3     1  UNL1        0.0585
     16 C          65.7117   94.3023   10.3369 C.ar    1  UNL1        0.0142
     17 C          65.3116   95.6677   10.8121 C.ar    1  UNL1       -0.0012
     18 C          66.1880   96.8497   10.5210 C.ar    1  UNL1       -0.0001
     19 C          67.4644   96.6664    9.7547 C.ar    1  UNL1        0.0031
     20 C          67.8644   95.3011    9.2795 C.ar    1  UNL1        0.0369
     21 C          66.9880   94.1190    9.5706 C.ar    1  UNL1        0.1428
     22 O          67.3880   92.7536    9.0954 O.3     1  UNL1       -0.4048
     23 C          68.8397   92.4075    8.9444 C.3     1  UNL1        0.5753
     24 F          70.2914   92.0615    8.7934 F       1  UNL1       -0.1328
     25 F          68.7745   92.7684    7.4899 F       1  UNL1       -0.1328
     26 F          68.9050   92.0467   10.3989 F       1  UNL1       -0.1328
     27 C          62.2183   89.5532   11.9913 C.3     1  UNL1        0.1543
     28 C          62.4646   88.0774   12.0976 C.ar    1  UNL1        0.1417
     29 N          63.4480   87.4113   13.0136 N.ar    1  UNL1       -0.2276
     30 C          63.3619   85.9308   12.7887 C.ar    1  UNL1        0.1167
     31 C          64.0935   84.7772   13.4082 C.ar    1  UNL1        0.0238
     32 C          63.7885   83.3746   12.9727 C.ar    1  UNL1        0.0223
     33 C          62.7518   83.1257   11.9175 C.ar    1  UNL1        0.1006
     34 N          62.0202   84.2793   11.2979 N.ar    1  UNL1       -0.2252
     35 C          62.3253   85.6818   11.7335 C.ar    1  UNL1        0.1626
     36 N          61.7707   87.0085   11.3064 N.ar    1  UNL1       -0.2990
     37 C          60.7087   87.2277   10.2700 C.3     1  UNL1        0.0898
     38 C          59.4461   87.7218    9.6283 C.3     1  UNL1        0.0273
     39 C          59.7624   88.0951   11.0462 C.3     1  UNL1        0.0273
     40 C          61.2860   86.4366    9.1340 C.ar    1  UNL1       -0.0037
     41 C          62.7532   86.1260    9.1057 C.ar    1  UNL1       -0.0025
     42 C          63.3306   85.3348    7.9696 C.ar    1  UNL1       -0.0003
     43 C          62.4407   84.8542    6.8618 C.ar    1  UNL1       -0.0000
     44 C          60.9734   85.1648    6.8901 C.ar    1  UNL1       -0.0003
     45 C          60.3961   85.9560    8.0262 C.ar    1  UNL1       -0.0025
@<TRIPOS>BOND
     1    11    12    1
     2    12    13    1
     3    12    14    1
     4    12    10    1
     5    10     6    1
     6     6     7    2
     7     6     8   am
     8     8     5    1
     9     5    15    1
    10    15    16    1
    11    16    17   ar
    12    17    18   ar
    13    18    19   ar
    14    19    20   ar
    15    20    21   ar
    16    21    22    1
    17    22    23    1
    18    23    24    1
    19    23    25    1
    20    23    26    1
    21     5     1    1
    22     1     2    2
    23     1     3   am
    24     3    27    1
    25    27    28    1
    26    28    29   ar
    27    29    30   ar
    28    30    31   ar
    29    31    32   ar
    30    32    33   ar
    31    33    34   ar
    32    34    35   ar
    33    35    36   ar
    34    36    37    1
    35    37    40    1
    36    40    41   ar
    37    41    42   ar
    38    42    43   ar
    39    43    44   ar
    40    44    45   ar
    41    37    38    1
    42    38    39    1
    43    21    16   ar
    44    36    28   ar
    45    39    37    1
    46    35    30   ar
    47    45    40   ar
    48     8     9    1
    49     3     4    1
@<TRIPOS>MOLECULE
*****
 45 49 0 0 0
SMALL
GASTEIGER

@<TRIPOS>ATOM
      1 C          62.4322   87.9874   12.2753 C.2     1  UNL1        0.2411
      2 O          61.3338   89.0088   12.2840 O.2     1  UNL1       -0.2733
      3 N          63.6943   88.2367   13.0466 N.am    1  UNL1       -0.2966
      4 H          64.4152   87.5663   13.0410 H       1  UNL1        0.1499
      5 C          62.2685   86.7165   11.4954 C.3     1  UNL1        0.1555
      6 C          62.9199   84.8392   13.1692 C.2     1  UNL1        0.4017
      7 O          64.2326   85.5197   13.4216 O.2     1  UNL1       -0.2264
      8 N          61.9378   85.4377   12.2061 N.am    1  UNL1       -0.2637
      9 H          61.0762   84.9910   12.0404 H       1  UNL1        0.1532
     10 O          62.5891   83.5604   13.8799 O.3     1  UNL1       -0.4419
     11 C          61.6354   81.6735   14.0532 C.3     1  UNL1        0.0437
     12 C          62.6871   82.2517   13.1535 C.3     1  UNL1        0.1378
     13 C          63.7389   82.8299   12.2538 C.3     1  UNL1        0.0437
     14 C          62.7851   80.9430   12.4270 C.3     1  UNL1        0.0437
     15 C          62.4356   86.7246   10.0047 C.3     1  UNL1        0.0585
     16 C          61.3527   87.2862    9.1317 C.ar    1  UNL1        0.0142
     17 C          60.8965   88.7027    9.3200 C.ar    1  UNL1       -0.0012
     18 C          59.8137   89.2642    8.4470 C.ar    1  UNL1       -0.0001
     19 C          59.1870   88.4092    7.3858 C.ar    1  UNL1        0.0031
     20 C          59.6432   86.9928    7.1974 C.ar    1  UNL1        0.0369
     21 C          60.7260   86.4312    8.0704 C.ar    1  UNL1        0.1428
     22 O          61.1822   85.0147    7.8821 O.3     1  UNL1       -0.4048
     23 C          62.0531   84.6562    6.7146 C.3     1  UNL1        0.5753
     24 F          62.9240   84.2976    5.5471 F       1  UNL1       -0.1328
     25 F          60.8596   84.1020    5.9946 F       1  UNL1       -0.1328
     26 F          63.2466   85.2103    7.4347 F       1  UNL1       -0.1328
     27 C          63.8580   89.5074   13.8266 C.3     1  UNL1        0.1543
     28 C          64.3857   90.7388   13.1519 C.ar    1  UNL1        0.1417
     29 N          64.3120   91.0404   11.6844 N.ar    1  UNL1       -0.2276
     30 C          64.9605   92.3728   11.4518 C.ar    1  UNL1        0.1167
     31 C          65.1802   93.1783   10.2056 C.ar    1  UNL1        0.0238
     32 C          65.8745   94.5056   10.2833 C.ar    1  UNL1        0.0223
     33 C          66.3491   95.0275   11.6070 C.ar    1  UNL1        0.1006
     34 N          66.1294   94.2221   12.8532 N.ar    1  UNL1       -0.2252
     35 C          65.4351   92.8947   12.7756 C.ar    1  UNL1        0.1626
     36 N          65.0798   91.8849   13.8263 N.ar    1  UNL1       -0.2990
     37 C          65.3681   92.0007   15.2937 C.3     1  UNL1        0.0898
     38 C          65.1468   92.0097   16.7773 C.3     1  UNL1        0.0273
     39 C          64.0009   91.7332   15.8498 C.3     1  UNL1        0.0273
     40 C          66.8355   92.3085   15.2474 C.ar    1  UNL1       -0.0037
     41 C          67.4002   93.4003   16.1071 C.ar    1  UNL1       -0.0025
     42 C          68.8676   93.7081   16.0608 C.ar    1  UNL1       -0.0003
     43 C          69.7701   92.9241   15.1548 C.ar    1  UNL1       -0.0000
     44 C          69.2053   91.8322   14.2952 C.ar    1  UNL1       -0.0003
     45 C          67.7380   91.5245   14.3415 C.ar    1  UNL1       -0.0025
@<TRIPOS>BOND
     1    11    12    1
     2    12    13    1
     3    12    14    1
     4    12    10    1
     5    10     6    1
     6     6     7    2
     7     6     8   am
     8     8     5    1
     9     5    15    1
    10    15    16    1
    11    16    17   ar
    12    17    18   ar
    13    18    19   ar
    14    19    20   ar
    15    20    21   ar
    16    21    22    1
    17    22    23    1
    18    23    24    1
    19    23    25    1
    20    23    26    1
    21     5     1    1
    22     1     2    2
    23     1     3   am
    24     3    27    1
    25    27    28    1
    26    28    29   ar
    27    29    30   ar
    28    30    31   ar
    29    31    32   ar
    30    32    33   ar
    31    33    34   ar
    32    34    35   ar
    33    35    36   ar
    34    36    37    1
    35    37    40    1
    36    40    41   ar
    37    41    42   ar
    38    42    43   ar
    39    43    44   ar
    40    44    45   ar
    41    37    38    1
    42    38    39    1
    43    21    16   ar
    44    36    28   ar
    45    39    37    1
    46    35    30   ar
    47    45    40   ar
    48     8     9    1
    49     3     4    1
@<TRIPOS>MOLECULE
*****
 45 49 0 0 0
SMALL
GASTEIGER

@<TRIPOS>ATOM
      1 C          62.2842   90.0136   10.6263 C.2     1  UNL1        0.2411
      2 O          61.5011   90.8674   11.5791 O.2     1  UNL1       -0.2733
      3 N          63.5753   90.5190   10.0539 N.am    1  UNL1       -0.2966
      4 H          64.0893   89.9587    9.4286 H       1  UNL1        0.1499
      5 C          61.7763   88.6544   10.2459 C.3     1  UNL1        0.1555
      6 C          60.0987   89.2101    8.3415 C.2     1  UNL1        0.4017
      7 O          59.4624   90.2568    9.2074 O.2     1  UNL1       -0.2264
      8 N          61.2556   88.4089    8.8608 N.am    1  UNL1       -0.2637
      9 H          61.6732   87.7220    8.2925 H       1  UNL1        0.1532
     10 O          59.5780   88.9646    6.9564 O.3     1  UNL1       -0.4419
     11 C          57.7464   89.8432    6.3454 C.3     1  UNL1        0.0437
     12 C          59.1965   90.1224    6.0824 C.3     1  UNL1        0.1378
     13 C          60.6466   90.4017    5.8194 C.3     1  UNL1        0.0437
     14 C          58.8150   91.2803    5.2084 C.3     1  UNL1        0.0437
     15 C          61.7890   87.5408   11.2507 C.3     1  UNL1        0.0585
     16 C          62.4384   86.2318   10.9114 C.ar    1  UNL1        0.0142
     17 C          62.4475   85.7446    9.4928 C.ar    1  UNL1       -0.0012
     18 C          63.0968   84.4358    9.1535 C.ar    1  UNL1       -0.0001
     19 C          63.7371   83.6141   10.2328 C.ar    1  UNL1        0.0031
     20 C          63.7280   84.1013   11.6514 C.ar    1  UNL1        0.0369
     21 C          63.0787   85.4102   11.9907 C.ar    1  UNL1        0.1428
     22 O          63.0696   85.8975   13.4094 O.3     1  UNL1       -0.4048
     23 C          63.4512   84.9688   14.5238 C.3     1  UNL1        0.5753
     24 F          63.8328   84.0401   15.6382 F       1  UNL1       -0.1328
     25 F          62.1272   84.2749   14.3989 F       1  UNL1       -0.1328
     26 F          64.7752   85.6627   14.6487 F       1  UNL1       -0.1328
     27 C          64.0833   91.8782   10.4342 C.3     1  UNL1        0.1543
     28 C          64.9230   92.0475   11.6655 C.ar    1  UNL1        0.1417
     29 N          64.4591   91.8683   13.0807 N.ar    1  UNL1       -0.2276
     30 C          65.6235   92.1358   13.9877 C.ar    1  UNL1        0.1167
     31 C          65.7589   92.1102   15.4813 C.ar    1  UNL1        0.0238
     32 C          67.0779   92.4291   16.1203 C.ar    1  UNL1        0.0223
     33 C          68.2616   92.7735   15.2657 C.ar    1  UNL1        0.1006
     34 N          68.1262   92.7991   13.7721 N.ar    1  UNL1       -0.2252
     35 C          66.8071   92.4803   13.1331 C.ar    1  UNL1        0.1626
     36 N          66.3742   92.4257   11.6979 N.ar    1  UNL1       -0.2990
     37 C          67.2405   92.7010   10.5047 C.3     1  UNL1        0.0898
     38 C          68.2675   92.4953    9.4309 C.3     1  UNL1        0.0273
     39 C          68.0043   91.4118   10.4343 C.3     1  UNL1        0.0273
     40 C          66.7775   94.0856   10.1606 C.ar    1  UNL1       -0.0037
     41 C          67.0250   94.6399    8.7890 C.ar    1  UNL1       -0.0025
     42 C          66.5621   96.0246    8.4448 C.ar    1  UNL1       -0.0003
     43 C          65.8517   96.8549    9.4724 C.ar    1  UNL1       -0.0000
     44 C          65.6042   96.3005   10.8441 C.ar    1  UNL1       -0.0003
     45 C          66.0671   94.9159   11.1882 C.ar    1  UNL1       -0.0025
@<TRIPOS>BOND
     1    11    12    1
     2    12    13    1
     3    12    14    1
     4    12    10    1
     5    10     6    1
     6     6     7    2
     7     6     8   am
     8     8     5    1
     9     5    15    1
    10    15    16    1
    11    16    17   ar
    12    17    18   ar
    13    18    19   ar
    14    19    20   ar
    15    20    21   ar
    16    21    22    1
    17    22    23    1
    18    23    24    1
    19    23    25    1
    20    23    26    1
    21     5     1    1
    22     1     2    2
    23     1     3   am
    24     3    27    1
    25    27    28    1
    26    28    29   ar
    27    29    30   ar
    28    30    31   ar
    29    31    32   ar
    30    32    33   ar
    31    33    34   ar
    32    34    35   ar
    33    35    36   ar
    34    36    37    1
    35    37    40    1
    36    40    41   ar
    37    41    42   ar
    38    42    43   ar
    39    43    44   ar
    40    44    45   ar
    41    37    38    1
    42    38    39    1
    43    21    16   ar
    44    36    28   ar
    45    39    37    1
    46    35    30   ar
    47    45    40   ar
    48     8     9    1
    49     3     4    1
