@<TRIPOS>MOLECULE
*****
 62 69 0 0 0
SMALL
GASTEIGER

@<TRIPOS>ATOM
      1 N          61.3081   85.7198    8.3540 N.3     1  UNL1       -0.1862
      2 C          62.1820   84.5845    8.7982 C.3     1  UNL1        0.1775
      3 C          62.9358   84.6798   10.0915 C.2     1  UNL1        0.2452
      4 O          63.8097   83.5444   10.5357 O.2     1  UNL1       -0.2732
      5 N          62.8158   85.9105   10.9406 N.am    1  UNL1       -0.2541
      6 C          63.5696   86.0059   12.2339 C.3     1  UNL1        0.1577
      7 C          63.4496   87.2365   13.0830 C.2     1  UNL1        0.2445
      8 O          64.2034   87.3319   14.3763 O.2     1  UNL1       -0.2731
      9 N          62.5757   88.3720   12.6388 N.am    1  UNL1       -0.2705
     10 C          61.8218   88.2766   11.3454 C.3     1  UNL1        0.1359
     11 C          61.9419   87.0458   10.4963 C.3     1  UNL1        0.1908
     12 N          61.1881   86.9505    9.2030 N.am    1  UNL1       -0.1863
     13 C          60.3142   88.0859    8.7588 C.2     1  UNL1        0.3191
     14 O          60.1942   89.3165    9.6079 O.2     1  UNL1       -0.2512
     15 N          59.5604   87.9905    7.4655 N.am    1  UNL1       -0.2836
     16 H          59.6392   87.1828    6.9082 H       1  UNL1        0.1513
     17 C          60.5543   85.6244    7.0606 C.3     1  UNL1        0.1188
     18 C          62.1704   84.5490    5.3339 C.2     1  UNL1       -0.0034
     19 C          60.8727   84.5297    6.0859 C.2     1  UNL1       -0.0071
     20 C          64.4434   84.8706   12.6781 C.3     1  UNL1        0.0556
     21 C          63.8254   83.6180   13.2251 C.ar    1  UNL1       -0.0198
     22 C          62.5033   83.6803   13.9308 C.ar    1  UNL1       -0.0011
     23 C          61.8853   82.4277   14.4777 C.ar    1  UNL1        0.0363
     24 C          62.5894   81.1128   14.3189 C.ar    1  UNL1        0.1337
     25 O          61.9714   79.8602   14.8658 O.3     1  UNL1       -0.5055
     26 C          63.9116   81.0505   13.6131 C.ar    1  UNL1        0.0363
     27 C          64.5296   82.3030   13.0662 C.ar    1  UNL1       -0.0011
     28 H          61.1456   79.8992   15.3067 H       1  UNL1        0.2922
     29 C          62.4556   89.6026   13.4878 C.3     1  UNL1        0.1217
     30 C          63.6235   90.5334   13.6289 C.ar    1  UNL1        0.0135
     31 C          64.3691   90.6096   14.9282 C.ar    1  UNL1       -0.0012
     32 C          65.5370   91.5403   15.0693 C.ar    1  UNL1       -0.0002
     33 C          65.9592   92.3948   13.9110 C.ar    1  UNL1        0.0016
     34 C          65.2136   92.3185   12.6117 C.ar    1  UNL1        0.0214
     35 C          65.3969   93.0334   11.3058 C.ar    1  UNL1        0.0721
     36 C          64.3424   92.5446   10.3577 C.ar    1  UNL1        0.0805
     37 N          63.5073   91.5276   11.0776 N.ar    1  UNL1       -0.3241
     38 C          62.3390   90.7813   10.5050 C.3     1  UNL1        0.1305
     39 C          64.0458   91.3878   12.4706 C.ar    1  UNL1        0.0577
     40 C          66.4500   94.0575   11.0015 C.2     1  UNL1        0.2506
     41 O          67.4981   94.3822   12.0242 O.2     1  UNL1       -0.2699
     42 N          66.4548   94.7568    9.6745 N.am    1  UNL1       -0.2732
     43 C          67.5077   95.7808    9.3702 C.3     1  UNL1        0.1110
     44 C          67.5126   96.4801    8.0432 C.3     1  UNL1        0.0939
     45 N          66.4644   96.1555    7.0205 N.3     1  UNL1       -0.2686
     46 C          65.4114   95.1314    7.3249 C.3     1  UNL1        0.0939
     47 C          65.4066   94.4321    8.6519 C.3     1  UNL1        0.1110
     48 C          66.4693   96.8548    5.6935 C.3     1  UNL1        0.0897
     49 C          65.2349   96.8547    4.8412 C.3     1  UNL1        0.0896
     50 N          65.2549   96.1985    3.4925 N.3     1  UNL1       -0.2715
     51 C          64.5559   94.8876    3.2858 C.3     1  UNL1        0.0721
     52 C          64.5758   94.2314    1.9371 C.3     1  UNL1        0.0174
     53 C          65.2948   94.8861    0.7950 C.3     1  UNL1        0.0029
     54 C          65.9938   96.1972    1.0017 C.3     1  UNL1        0.0174
     55 C          65.9739   96.8533    2.3504 C.3     1  UNL1        0.0721
     56 C          58.6865   89.1258    7.0213 C.3     1  UNL1        0.1177
     57 C          59.2044   90.1288    6.0334 C.ar    1  UNL1       -0.0025
     58 C          58.2777   91.1533    5.4490 C.ar    1  UNL1       -0.0026
     59 C          58.7955   92.1562    4.4611 C.ar    1  UNL1       -0.0003
     60 C          60.2401   92.1346    4.0576 C.ar    1  UNL1       -0.0000
     61 C          61.1668   91.1101    4.6420 C.ar    1  UNL1       -0.0003
     62 C          60.6490   90.1071    5.6299 C.ar    1  UNL1       -0.0026
@<TRIPOS>BOND
     1    18    19    2
     2    19    17    1
     3    17     1    1
     4     1     2    1
     5     2     3    1
     6     3     4    2
     7     3     5   am
     8     5     6    1
     9     6    20    1
    10    20    21    1
    11    21    22   ar
    12    22    23   ar
    13    23    24   ar
    14    24    25    1
    15    24    26   ar
    16    26    27   ar
    17     6     7    1
    18     7     8    2
    19     7     9   am
    20     9    29    1
    21    29    30    1
    22    30    31   ar
    23    31    32   ar
    24    32    33   ar
    25    33    34   ar
    26    34    35   ar
    27    35    40    1
    28    40    41    2
    29    40    42   am
    30    42    43    1
    31    43    44    1
    32    44    45    1
    33    45    48    1
    34    48    49    1
    35    49    50    1
    36    50    51    1
    37    51    52    1
    38    52    53    1
    39    53    54    1
    40    54    55    1
    41    45    46    1
    42    46    47    1
    43    35    36   ar
    44    36    37   ar
    45    37    38    1
    46    37    39   ar
    47     9    10    1
    48    11    10    1
    49    11    12    1
    50    12    13   am
    51    13    14    2
    52    13    15   am
    53    15    56    1
    54    56    57    1
    55    57    58   ar
    56    58    59   ar
    57    59    60   ar
    58    60    61   ar
    59    61    62   ar
    60    12     1    1
    61    62    57   ar
    62    11     5    1
    63    27    21   ar
    64    39    30   ar
    65    39    34   ar
    66    47    42    1
    67    55    50    1
    68    25    28    1
    69    15    16    1
@<TRIPOS>MOLECULE
*****
 62 69 0 0 0
SMALL
GASTEIGER

@<TRIPOS>ATOM
      1 N          62.6191   95.0968   -2.7240 N.3     1  UNL1       -0.1862
      2 C          61.5778   94.6302   -3.6975 C.3     1  UNL1        0.1775
      3 C          60.3148   93.9942   -3.1972 C.2     1  UNL1        0.2452
      4 O          59.2734   93.5276   -4.1708 O.2     1  UNL1       -0.2732
      5 N          60.0932   93.8247   -1.7234 N.am    1  UNL1       -0.2541
      6 C          58.8302   93.1886   -1.2232 C.3     1  UNL1        0.1577
      7 C          58.6086   93.0191    0.2506 C.2     1  UNL1        0.2445
      8 O          57.3456   92.3830    0.7509 O.2     1  UNL1       -0.2731
      9 N          59.6500   93.4857    1.2242 N.am    1  UNL1       -0.2705
     10 C          60.9130   94.1218    0.7240 C.3     1  UNL1        0.1359
     11 C          61.1346   94.2913   -0.7499 C.3     1  UNL1        0.1908
     12 N          62.3975   94.9273   -1.2502 N.am    1  UNL1       -0.1863
     13 C          63.4390   95.3939   -0.2766 C.2     1  UNL1        0.3191
     14 O          63.2174   95.2244    1.1972 O.2     1  UNL1       -0.2512
     15 N          64.7019   96.0300   -0.7769 N.am    1  UNL1       -0.2836
     16 H          64.8474   96.1412   -1.7442 H       1  UNL1        0.1513
     17 C          63.8821   95.7329   -3.2243 C.3     1  UNL1        0.1188
     18 C          64.3602   93.7257   -4.8030 C.2     1  UNL1       -0.0034
     19 C          64.5940   95.1546   -4.4111 C.2     1  UNL1       -0.0071
     20 C          57.7888   92.7220   -2.1967 C.3     1  UNL1        0.0556
     21 C          56.6974   93.6545   -2.6316 C.ar    1  UNL1       -0.0198
     22 C          55.9775   94.4920   -1.6165 C.ar    1  UNL1       -0.0011
     23 C          54.8861   95.4245   -2.0515 C.ar    1  UNL1        0.0363
     24 C          54.5145   95.5195   -3.5016 C.ar    1  UNL1        0.1337
     25 O          53.4230   96.4520   -3.9366 O.3     1  UNL1       -0.5055
     26 C          55.2343   94.6820   -4.5168 C.ar    1  UNL1        0.0363
     27 C          56.3257   93.7495   -4.0818 C.ar    1  UNL1       -0.0011
     28 H          52.9734   96.9751   -3.3024 H       1  UNL1        0.2922
     29 C          59.4284   93.3162    2.6980 C.3     1  UNL1        0.1217
     30 C          60.1801   92.2602    3.4530 C.ar    1  UNL1        0.0135
     31 C          61.6424   92.0501    3.1933 C.ar    1  UNL1       -0.0012
     32 C          62.3942   90.9942    3.9481 C.ar    1  UNL1       -0.0002
     33 C          61.6835   90.1483    4.9627 C.ar    1  UNL1        0.0016
     34 C          60.2212   90.3584    5.2224 C.ar    1  UNL1        0.0214
     35 C          59.2603   89.6829    6.1554 C.ar    1  UNL1        0.0721
     36 C          57.9148   90.3214    5.9772 C.ar    1  UNL1        0.0805
     37 N          58.0441   91.3915    4.9341 N.ar    1  UNL1       -0.3241
     38 C          56.9415   92.2823    4.4435 C.3     1  UNL1        0.1305
     39 C          59.4695   91.4143    4.4676 C.ar    1  UNL1        0.0577
     40 C          59.5876   88.5652    7.1008 C.2     1  UNL1        0.2506
     41 O          59.1997   87.1568    6.7600 O.2     1  UNL1       -0.2699
     42 N          60.3028   88.8558    8.3869 N.am    1  UNL1       -0.2732
     43 C          60.6301   87.7381    9.3322 C.3     1  UNL1        0.1110
     44 C          61.3453   88.0287   10.6183 C.3     1  UNL1        0.0939
     45 N          61.7332   89.4370   10.9591 N.3     1  UNL1       -0.2686
     46 C          61.4059   90.5547   10.0137 C.3     1  UNL1        0.0939
     47 C          60.6907   90.2641    8.7276 C.3     1  UNL1        0.1110
     48 C          62.4484   89.7276   12.2452 C.3     1  UNL1        0.0897
     49 C          62.8516   91.1336   12.5781 C.3     1  UNL1        0.0896
     50 N          64.2424   91.6066   12.2752 N.3     1  UNL1       -0.2715
     51 C          65.2920   91.5850   13.3466 C.3     1  UNL1        0.0721
     52 C          66.6828   92.0580   13.0437 C.3     1  UNL1        0.0174
     53 C          67.0242   92.5526   11.6694 C.3     1  UNL1        0.0029
     54 C          65.9746   92.5741   10.5979 C.3     1  UNL1        0.0174
     55 C          64.5837   92.1011   10.9008 C.3     1  UNL1        0.0721
     56 C          65.7433   96.4966    0.1966 C.3     1  UNL1        0.1177
     57 C          65.4078   96.6163    1.6537 C.ar    1  UNL1       -0.0025
     58 C          63.9766   96.7360    2.0864 C.ar    1  UNL1       -0.0026
     59 C          63.6411   96.8557    3.5435 C.ar    1  UNL1       -0.0003
     60 C          64.7368   96.8559    4.5679 C.ar    1  UNL1       -0.0000
     61 C          66.1681   96.7363    4.1352 C.ar    1  UNL1       -0.0003
     62 C          66.5036   96.6165    2.6781 C.ar    1  UNL1       -0.0026
@<TRIPOS>BOND
     1    18    19    2
     2    19    17    1
     3    17     1    1
     4     1     2    1
     5     2     3    1
     6     3     4    2
     7     3     5   am
     8     5     6    1
     9     6    20    1
    10    20    21    1
    11    21    22   ar
    12    22    23   ar
    13    23    24   ar
    14    24    25    1
    15    24    26   ar
    16    26    27   ar
    17     6     7    1
    18     7     8    2
    19     7     9   am
    20     9    29    1
    21    29    30    1
    22    30    31   ar
    23    31    32   ar
    24    32    33   ar
    25    33    34   ar
    26    34    35   ar
    27    35    40    1
    28    40    41    2
    29    40    42   am
    30    42    43    1
    31    43    44    1
    32    44    45    1
    33    45    48    1
    34    48    49    1
    35    49    50    1
    36    50    51    1
    37    51    52    1
    38    52    53    1
    39    53    54    1
    40    54    55    1
    41    45    46    1
    42    46    47    1
    43    35    36   ar
    44    36    37   ar
    45    37    38    1
    46    37    39   ar
    47     9    10    1
    48    11    10    1
    49    11    12    1
    50    12    13   am
    51    13    14    2
    52    13    15   am
    53    15    56    1
    54    56    57    1
    55    57    58   ar
    56    58    59   ar
    57    59    60   ar
    58    60    61   ar
    59    61    62   ar
    60    12     1    1
    61    62    57   ar
    62    11     5    1
    63    27    21   ar
    64    39    30   ar
    65    39    34   ar
    66    47    42    1
    67    55    50    1
    68    25    28    1
    69    15    16    1
@<TRIPOS>MOLECULE
*****
 62 69 0 0 0
SMALL
GASTEIGER

@<TRIPOS>ATOM
      1 N          62.4487   95.0557   -2.8123 N.3     1  UNL1       -0.1862
      2 C          61.3967   94.6143   -3.7861 C.3     1  UNL1        0.1775
      3 C          60.1203   94.0051   -3.2864 C.2     1  UNL1        0.2452
      4 O          59.0683   93.5637   -4.2604 O.2     1  UNL1       -0.2732
      5 N          59.8959   93.8374   -1.8129 N.am    1  UNL1       -0.2541
      6 C          58.6195   93.2282   -1.3132 C.3     1  UNL1        0.1577
      7 C          58.3950   93.0605    0.1604 C.2     1  UNL1        0.2445
      8 O          57.1186   92.4513    0.6601 O.2     1  UNL1       -0.2731
      9 N          59.4470   93.5019    1.1344 N.am    1  UNL1       -0.2705
     10 C          60.7234   94.1111    0.6347 C.3     1  UNL1        0.1359
     11 C          60.9478   94.2788   -0.8390 C.3     1  UNL1        0.1908
     12 N          62.2242   94.8880   -1.3387 N.am    1  UNL1       -0.1863
     13 C          63.2762   95.3294   -0.3647 C.2     1  UNL1        0.3191
     14 O          63.0518   95.1617    1.1088 O.2     1  UNL1       -0.2512
     15 N          64.5526   95.9386   -0.8644 N.am    1  UNL1       -0.2836
     16 H          64.6999   96.0487   -1.8316 H       1  UNL1        0.1513
     17 C          63.7251   95.6649   -3.3120 C.3     1  UNL1        0.1188
     18 C          64.1501   96.2523   -5.8068 C.2     1  UNL1       -0.0034
     19 C          63.6928   96.6568   -4.4367 C.2     1  UNL1       -0.0071
     20 C          57.5675   92.7868   -2.2870 C.3     1  UNL1        0.0556
     21 C          56.4880   93.7394   -2.7080 C.ar    1  UNL1       -0.0198
     22 C          55.8250   94.6190   -1.6898 C.ar    1  UNL1       -0.0011
     23 C          54.7455   95.5716   -2.1107 C.ar    1  UNL1        0.0363
     24 C          54.3290   95.6447   -3.5498 C.ar    1  UNL1        0.1337
     25 O          53.2495   96.5973   -3.9708 O.3     1  UNL1       -0.5055
     26 C          54.9920   94.7651   -4.5681 C.ar    1  UNL1        0.0363
     27 C          56.0715   93.8125   -4.1472 C.ar    1  UNL1       -0.0011
     28 H          52.8354   97.1467   -3.3347 H       1  UNL1        0.2922
     29 C          59.2226   93.3342    2.6079 C.3     1  UNL1        0.1217
     30 C          60.0005   92.3046    3.3727 C.ar    1  UNL1        0.0135
     31 C          61.4640   92.1168    3.1023 C.ar    1  UNL1       -0.0012
     32 C          62.2419   91.0873    3.8670 C.ar    1  UNL1       -0.0002
     33 C          61.5565   90.2456    4.9021 C.ar    1  UNL1        0.0016
     34 C          60.0930   90.4334    5.1726 C.ar    1  UNL1        0.0214
     35 C          59.1535   89.7561    6.1258 C.ar    1  UNL1        0.0721
     36 C          57.7949   90.3671    5.9501 C.ar    1  UNL1        0.0805
     37 N          57.8948   91.4219    4.8884 N.ar    1  UNL1       -0.3241
     38 C          56.7715   92.2844    4.3941 C.3     1  UNL1        0.1305
     39 C          59.3151   91.4629    4.4078 C.ar    1  UNL1        0.0577
     40 C          59.5100   88.6602    7.0860 C.2     1  UNL1        0.2506
     41 O          58.9412   87.2849    6.8992 O.2     1  UNL1       -0.2699
     42 N          60.4353   88.9397    8.2331 N.am    1  UNL1       -0.2732
     43 C          60.7919   87.8440    9.1933 C.3     1  UNL1        0.1110
     44 C          61.7172   88.1235   10.3403 C.3     1  UNL1        0.0939
     45 N          62.2860   89.4989   10.5271 N.3     1  UNL1       -0.2686
     46 C          61.9294   90.5947    9.5668 C.3     1  UNL1        0.0939
     47 C          61.0041   90.3152    8.4198 C.3     1  UNL1        0.1110
     48 C          63.2113   89.7784   11.6742 C.3     1  UNL1        0.0897
     49 C          63.4199   88.7427   12.7390 C.3     1  UNL1        0.0896
     50 N          63.4086   89.1410   14.1851 N.3     1  UNL1       -0.2715
     51 C          63.4411   90.5920   14.5637 C.3     1  UNL1        0.0721
     52 C          63.4297   90.9903   16.0098 C.3     1  UNL1        0.0174
     53 C          63.3858   89.9375   17.0774 C.3     1  UNL1        0.0029
     54 C          63.3533   88.4864   16.6987 C.3     1  UNL1        0.0174
     55 C          63.3647   88.0881   15.2526 C.3     1  UNL1        0.0721
     56 C          65.6046   96.3800    0.1094 C.3     1  UNL1        0.1177
     57 C          65.3324   96.3253    1.5835 C.ar    1  UNL1       -0.0025
     58 C          64.0392   96.8560    2.1276 C.ar    1  UNL1       -0.0026
     59 C          63.7670   96.8013    3.6016 C.ar    1  UNL1       -0.0003
     60 C          64.7879   96.2158    4.5317 C.ar    1  UNL1       -0.0000
     61 C          66.0811   95.6851    3.9876 C.ar    1  UNL1       -0.0003
     62 C          66.3534   95.7398    2.5135 C.ar    1  UNL1       -0.0026
@<TRIPOS>BOND
     1    18    19    2
     2    19    17    1
     3    17     1    1
     4     1     2    1
     5     2     3    1
     6     3     4    2
     7     3     5   am
     8     5     6    1
     9     6    20    1
    10    20    21    1
    11    21    22   ar
    12    22    23   ar
    13    23    24   ar
    14    24    25    1
    15    24    26   ar
    16    26    27   ar
    17     6     7    1
    18     7     8    2
    19     7     9   am
    20     9    29    1
    21    29    30    1
    22    30    31   ar
    23    31    32   ar
    24    32    33   ar
    25    33    34   ar
    26    34    35   ar
    27    35    40    1
    28    40    41    2
    29    40    42   am
    30    42    43    1
    31    43    44    1
    32    44    45    1
    33    45    48    1
    34    48    49    1
    35    49    50    1
    36    50    51    1
    37    51    52    1
    38    52    53    1
    39    53    54    1
    40    54    55    1
    41    45    46    1
    42    46    47    1
    43    35    36   ar
    44    36    37   ar
    45    37    38    1
    46    37    39   ar
    47     9    10    1
    48    11    10    1
    49    11    12    1
    50    12    13   am
    51    13    14    2
    52    13    15   am
    53    15    56    1
    54    56    57    1
    55    57    58   ar
    56    58    59   ar
    57    59    60   ar
    58    60    61   ar
    59    61    62   ar
    60    12     1    1
    61    62    57   ar
    62    11     5    1
    63    27    21   ar
    64    39    30   ar
    65    39    34   ar
    66    47    42    1
    67    55    50    1
    68    25    28    1
    69    15    16    1
@<TRIPOS>MOLECULE
*****
 62 69 0 0 0
SMALL
GASTEIGER

@<TRIPOS>ATOM
      1 N          63.1056   82.1195   13.9973 N.3     1  UNL1       -0.1862
      2 C          63.2313   82.7910   15.3326 C.3     1  UNL1        0.1775
      3 C          63.3040   84.2869   15.4159 C.2     1  UNL1        0.2452
      4 O          63.4297   84.9585   16.7514 O.2     1  UNL1       -0.2732
      5 N          63.2512   85.1113   14.1639 N.am    1  UNL1       -0.2541
      6 C          63.3239   86.6072   14.2473 C.3     1  UNL1        0.1577
      7 C          63.2710   87.4316   12.9953 C.2     1  UNL1        0.2445
      8 O          63.3438   88.9275   13.0786 O.2     1  UNL1       -0.2731
      9 N          63.1454   86.7601   11.6598 N.am    1  UNL1       -0.2705
     10 C          63.0726   85.2641   11.5765 C.3     1  UNL1        0.1359
     11 C          63.1255   84.4398   12.8286 C.3     1  UNL1        0.1908
     12 N          63.0527   82.9438   12.7452 N.am    1  UNL1       -0.1863
     13 C          62.9271   82.2723   11.4098 C.2     1  UNL1        0.3191
     14 O          62.8742   83.0967   10.1578 O.2     1  UNL1       -0.2512
     15 N          62.8543   80.7764   11.3265 N.am    1  UNL1       -0.2836
     16 H          62.8890   80.2353   12.1482 H       1  UNL1        0.1513
     17 C          63.0328   80.6236   13.9139 C.3     1  UNL1        0.1188
     18 C          60.4407   80.7182   14.0613 C.2     1  UNL1       -0.0034
     19 C          61.7147   79.9266   14.0768 C.2     1  UNL1       -0.0071
     20 C          63.4496   87.2788   15.5826 C.3     1  UNL1        0.0556
     21 C          63.8830   88.7125   15.6633 C.ar    1  UNL1       -0.0198
     22 C          63.1539   89.6670   16.5618 C.ar    1  UNL1       -0.0011
     23 C          63.5874   91.1008   16.6424 C.ar    1  UNL1        0.0363
     24 C          64.7498   91.5800   15.8246 C.ar    1  UNL1        0.1337
     25 O          65.1833   93.0138   15.9053 O.3     1  UNL1       -0.5055
     26 C          65.4790   90.6255   14.9260 C.ar    1  UNL1        0.0363
     27 C          65.0456   89.1917   14.8454 C.ar    1  UNL1       -0.0011
     28 H          64.7278   93.6100   16.4665 H       1  UNL1        0.2922
     29 C          63.0925   87.5844   10.4078 C.3     1  UNL1        0.1217
     30 C          61.9696   87.3943    9.4315 C.ar    1  UNL1        0.0135
     31 C          61.5593   86.0113    9.0204 C.ar    1  UNL1       -0.0012
     32 C          60.4365   85.8212    8.0442 C.ar    1  UNL1       -0.0002
     33 C          59.7241   87.0140    7.4789 C.ar    1  UNL1        0.0016
     34 C          60.1344   88.3970    7.8900 C.ar    1  UNL1        0.0214
     35 C          59.6216   89.7526    7.5037 C.ar    1  UNL1        0.0721
     36 C          60.4274   90.7806    8.2412 C.ar    1  UNL1        0.0805
     37 N          61.4382   90.0603    9.0833 N.ar    1  UNL1       -0.3241
     38 C          62.4522   90.7006    9.9843 C.3     1  UNL1        0.1305
     39 C          61.2572   88.5871    8.8663 C.ar    1  UNL1        0.0577
     40 C          58.4997   90.0313    6.5476 C.2     1  UNL1        0.2506
     41 O          57.1404   89.4476    6.7957 O.2     1  UNL1       -0.2699
     42 N          58.7373   90.8937    5.3435 N.am    1  UNL1       -0.2732
     43 C          57.6156   91.1725    4.3875 C.3     1  UNL1        0.1110
     44 C          57.8532   92.0349    3.1834 C.3     1  UNL1        0.0939
     45 N          59.2125   92.6185    2.9353 N.3     1  UNL1       -0.2686
     46 C          60.3343   92.3398    3.8914 C.3     1  UNL1        0.0939
     47 C          60.0967   91.4774    5.0955 C.3     1  UNL1        0.1110
     48 C          59.4501   93.4809    1.7312 C.3     1  UNL1        0.0897
     49 C          59.2512   92.9186    0.3549 C.3     1  UNL1        0.0896
     50 N          58.1185   93.4071   -0.4984 N.3     1  UNL1       -0.2715
     51 C          57.9537   94.8753   -0.7575 C.3     1  UNL1        0.0721
     52 C          56.8209   95.3638   -1.6108 C.3     1  UNL1        0.0174
     53 C          55.8529   94.3841   -2.2052 C.3     1  UNL1        0.0029
     54 C          56.0178   92.9159   -1.9461 C.3     1  UNL1        0.0174
     55 C          57.1505   92.4273   -1.0927 C.3     1  UNL1        0.0721
     56 C          62.7286   80.1049    9.9911 C.3     1  UNL1        0.1177
     57 C          63.2212   78.6998    9.8089 C.ar    1  UNL1       -0.0025
     58 C          64.2568   78.3973    8.7668 C.ar    1  UNL1       -0.0026
     59 C          64.7494   76.9923    8.5846 C.ar    1  UNL1       -0.0003
     60 C          64.2064   75.8897    9.4444 C.ar    1  UNL1       -0.0000
     61 C          63.1707   76.1921   10.4866 C.ar    1  UNL1       -0.0003
     62 C          62.6781   77.5972   10.6688 C.ar    1  UNL1       -0.0026
@<TRIPOS>BOND
     1    18    19    2
     2    19    17    1
     3    17     1    1
     4     1     2    1
     5     2     3    1
     6     3     4    2
     7     3     5   am
     8     5     6    1
     9     6    20    1
    10    20    21    1
    11    21    22   ar
    12    22    23   ar
    13    23    24   ar
    14    24    25    1
    15    24    26   ar
    16    26    27   ar
    17     6     7    1
    18     7     8    2
    19     7     9   am
    20     9    29    1
    21    29    30    1
    22    30    31   ar
    23    31    32   ar
    24    32    33   ar
    25    33    34   ar
    26    34    35   ar
    27    35    40    1
    28    40    41    2
    29    40    42   am
    30    42    43    1
    31    43    44    1
    32    44    45    1
    33    45    48    1
    34    48    49    1
    35    49    50    1
    36    50    51    1
    37    51    52    1
    38    52    53    1
    39    53    54    1
    40    54    55    1
    41    45    46    1
    42    46    47    1
    43    35    36   ar
    44    36    37   ar
    45    37    38    1
    46    37    39   ar
    47     9    10    1
    48    11    10    1
    49    11    12    1
    50    12    13   am
    51    13    14    2
    52    13    15   am
    53    15    56    1
    54    56    57    1
    55    57    58   ar
    56    58    59   ar
    57    59    60   ar
    58    60    61   ar
    59    61    62   ar
    60    12     1    1
    61    62    57   ar
    62    11     5    1
    63    27    21   ar
    64    39    30   ar
    65    39    34   ar
    66    47    42    1
    67    55    50    1
    68    25    28    1
    69    15    16    1
@<TRIPOS>MOLECULE
*****
 62 69 0 0 0
SMALL
GASTEIGER

@<TRIPOS>ATOM
      1 N          63.1544   82.1210   14.0176 N.3     1  UNL1       -0.1862
      2 C          63.2842   82.7890   15.3543 C.3     1  UNL1        0.1775
      3 C          63.3537   84.2848   15.4417 C.2     1  UNL1        0.2452
      4 O          63.4835   84.9528   16.7785 O.2     1  UNL1       -0.2732
      5 N          63.2933   85.1127   14.1923 N.am    1  UNL1       -0.2541
      6 C          63.3627   86.6085   14.2797 C.3     1  UNL1        0.1577
      7 C          63.3024   87.4364   13.0303 C.2     1  UNL1        0.2445
      8 O          63.3718   88.9322   13.1177 O.2     1  UNL1       -0.2731
      9 N          63.1726   86.7684   11.6935 N.am    1  UNL1       -0.2705
     10 C          63.1031   85.2726   11.6061 C.3     1  UNL1        0.1359
     11 C          63.1635   84.4447   12.8556 C.3     1  UNL1        0.1908
     12 N          63.0941   82.9488   12.7682 N.am    1  UNL1       -0.1863
     13 C          62.9643   82.2809   11.4314 C.2     1  UNL1        0.3191
     14 O          62.9039   83.1087   10.1820 O.2     1  UNL1       -0.2512
     15 N          62.8948   80.7850   11.3440 N.am    1  UNL1       -0.2836
     16 H          62.9345   80.2417   12.1640 H       1  UNL1        0.1513
     17 C          63.0850   80.6251   13.9302 C.3     1  UNL1        0.1188
     18 C          60.4967   80.7142   14.1364 C.2     1  UNL1       -0.0034
     19 C          61.7711   79.9237   14.1078 C.2     1  UNL1       -0.0071
     20 C          63.4925   87.2765   15.6164 C.3     1  UNL1        0.0556
     21 C          63.9106   88.7147   15.6988 C.ar    1  UNL1       -0.0198
     22 C          63.1692   89.6611   16.5958 C.ar    1  UNL1       -0.0011
     23 C          63.5873   91.0993   16.6781 C.ar    1  UNL1        0.0363
     24 C          64.7467   91.5911   15.8634 C.ar    1  UNL1        0.1337
     25 O          65.1647   93.0293   15.9457 O.3     1  UNL1       -0.5055
     26 C          65.4881   90.6448   14.9663 C.ar    1  UNL1        0.0363
     27 C          65.0700   89.2065   14.8840 C.ar    1  UNL1       -0.0011
     28 H          64.7016   93.6205   16.5061 H       1  UNL1        0.2922
     29 C          63.1122   87.5963   10.4442 C.3     1  UNL1        0.1217
     30 C          61.9969   87.3918    9.4621 C.ar    1  UNL1        0.0135
     31 C          61.6230   86.0049    9.0299 C.ar    1  UNL1       -0.0012
     32 C          60.5078   85.8005    8.0478 C.ar    1  UNL1       -0.0002
     33 C          59.7665   86.9828    7.4980 C.ar    1  UNL1        0.0016
     34 C          60.1403   88.3697    7.9303 C.ar    1  UNL1        0.0214
     35 C          59.5939   89.7173    7.5622 C.ar    1  UNL1        0.0721
     36 C          60.3715   90.7546    8.3168 C.ar    1  UNL1        0.0805
     37 N          61.3984   90.0481    9.1511 N.ar    1  UNL1       -0.3241
     38 C          62.3935   90.7010   10.0641 C.3     1  UNL1        0.1305
     39 C          61.2556   88.5742    8.9123 C.ar    1  UNL1        0.0577
     40 C          58.4676   89.9812    6.6072 C.2     1  UNL1        0.2506
     41 O          57.1133   89.3893    6.8629 O.2     1  UNL1       -0.2699
     42 N          58.6958   90.8370    5.3966 N.am    1  UNL1       -0.2732
     43 C          57.5696   91.1010    4.4416 C.3     1  UNL1        0.1110
     44 C          57.7977   91.9568    3.2311 C.3     1  UNL1        0.0939
     45 N          59.1521   92.5487    2.9754 N.3     1  UNL1       -0.2686
     46 C          60.2783   92.2847    3.9304 C.3     1  UNL1        0.0939
     47 C          60.0502   91.4289    5.1410 C.3     1  UNL1        0.1110
     48 C          59.3802   93.4044    1.7648 C.3     1  UNL1        0.0897
     49 C          60.0185   92.8175    0.5409 C.3     1  UNL1        0.0896
     50 N          61.4325   93.1731    0.1886 N.3     1  UNL1       -0.2715
     51 C          61.8314   93.3264   -1.2492 C.3     1  UNL1        0.0721
     52 C          63.2454   93.6820   -1.6014 C.3     1  UNL1        0.0174
     53 C          64.2606   93.8843   -0.5159 C.3     1  UNL1        0.0029
     54 C          63.8617   93.7308    0.9220 C.3     1  UNL1        0.0174
     55 C          62.4477   93.3753    1.2743 C.3     1  UNL1        0.0721
     56 C          62.7651   80.1170   10.0073 C.3     1  UNL1        0.1177
     57 C          63.2443   78.7076    9.8235 C.ar    1  UNL1       -0.0025
     58 C          62.6993   77.6111   10.6898 C.ar    1  UNL1       -0.0026
     59 C          63.1786   76.2017   10.5060 C.ar    1  UNL1       -0.0003
     60 C          64.2028   75.8887    9.4558 C.ar    1  UNL1       -0.0000
     61 C          64.7479   76.9853    8.5894 C.ar    1  UNL1       -0.0003
     62 C          64.2686   78.3947    8.7732 C.ar    1  UNL1       -0.0026
@<TRIPOS>BOND
     1    18    19    2
     2    19    17    1
     3    17     1    1
     4     1     2    1
     5     2     3    1
     6     3     4    2
     7     3     5   am
     8     5     6    1
     9     6    20    1
    10    20    21    1
    11    21    22   ar
    12    22    23   ar
    13    23    24   ar
    14    24    25    1
    15    24    26   ar
    16    26    27   ar
    17     6     7    1
    18     7     8    2
    19     7     9   am
    20     9    29    1
    21    29    30    1
    22    30    31   ar
    23    31    32   ar
    24    32    33   ar
    25    33    34   ar
    26    34    35   ar
    27    35    40    1
    28    40    41    2
    29    40    42   am
    30    42    43    1
    31    43    44    1
    32    44    45    1
    33    45    48    1
    34    48    49    1
    35    49    50    1
    36    50    51    1
    37    51    52    1
    38    52    53    1
    39    53    54    1
    40    54    55    1
    41    45    46    1
    42    46    47    1
    43    35    36   ar
    44    36    37   ar
    45    37    38    1
    46    37    39   ar
    47     9    10    1
    48    11    10    1
    49    11    12    1
    50    12    13   am
    51    13    14    2
    52    13    15   am
    53    15    56    1
    54    56    57    1
    55    57    58   ar
    56    58    59   ar
    57    59    60   ar
    58    60    61   ar
    59    61    62   ar
    60    12     1    1
    61    62    57   ar
    62    11     5    1
    63    27    21   ar
    64    39    30   ar
    65    39    34   ar
    66    47    42    1
    67    55    50    1
    68    25    28    1
    69    15    16    1
