@<TRIPOS>MOLECULE
*****
 40 43 0 0 0
SMALL
GASTEIGER

@<TRIPOS>ATOM
      1 C          64.2580   86.0475   14.4771 C.3     1  UNL1        0.1484
      2 O          64.9590   85.4085   15.6391 O.3     1  UNL1       -0.3810
      3 H          65.3055   86.0981   16.2266 H       1  UNL1        0.2105
      4 C          64.1850   87.5423   14.3749 C.3     1  UNL1        0.1246
      5 C          63.5438   89.8372   15.4104 C.2     1  UNL1        0.2492
      6 O          63.0559   90.6456   16.5759 O.2     1  UNL1       -0.2699
      7 N          63.6972   88.3507   15.5404 N.am    1  UNL1       -0.2718
      8 C          63.3628   87.6727   16.8360 C.3     1  UNL1        0.1153
      9 C          66.2802   93.4601   10.9223 C.ar    1  UNL1        0.2924
     10 N          65.1111   92.6822   10.3950 N.ar    1  UNL1       -0.1946
     11 C          64.5469   91.8711   11.5237 C.ar    1  UNL1        0.1202
     12 C          63.3921   90.9164   11.5943 C.ar    1  UNL1        0.0225
     13 C          63.0578   90.2385   12.8899 C.ar    1  UNL1        0.0063
     14 C          63.8782   90.5152   14.1148 C.ar    1  UNL1        0.0567
     15 C          65.0329   91.4699   14.0441 C.ar    1  UNL1        0.0437
     16 C          65.3673   92.1479   12.7486 C.ar    1  UNL1        0.1662
     17 O          66.4385   93.1299   12.3769 O.2     1  UNL1       -0.4237
     18 N          67.1399   94.4028   10.1335 N.pl3   1  UNL1       -0.2619
     19 C          66.9933   95.8841   10.3177 C.3     1  UNL1        0.1166
     20 C          68.6028   92.4390    9.2653 C.3     1  UNL1        0.0233
     21 C          68.1464   93.8640    9.1604 C.3     1  UNL1        0.0952
     22 C          63.6298   85.1918   13.4173 C.3     1  UNL1        0.1075
     23 N          62.4245   85.6843   12.6725 N.am    1  UNL1       -0.2695
     24 C          62.2849   85.4075   11.2049 C.2     1  UNL1        0.4020
     25 O          63.3505   84.6382   10.4820 O.2     1  UNL1       -0.2264
     26 H          61.7250   86.1892   13.1469 H       1  UNL1        0.1528
     27 O          61.0795   85.9000   10.4601 O.3     1  UNL1       -0.4291
     28 C          61.1313   87.2106    9.7323 C.3     1  UNL1        0.2447
     29 C          60.5156   88.4335   10.3450 C.ar    1  UNL1        0.0714
     30 C          60.3764   89.7744    9.6872 C.ar    1  UNL1        0.1053
     31 N          59.7057   90.6999   10.6586 N.ar    1  UNL1       -0.2350
     32 C          59.4303   89.9310   11.9168 C.ar    1  UNL1        0.1343
     33 S          59.9308   88.5302   11.7229 S.2     1  UNL1       -0.0652
     34 C          64.2070   83.8436   13.1022 C.3     1  UNL1        0.0485
     35 C          63.3545   82.6155   13.2250 C.ar    1  UNL1       -0.0204
     36 C          63.5492   81.4696   12.2769 C.ar    1  UNL1       -0.0042
     37 C          62.6968   80.2415   12.3996 C.ar    1  UNL1       -0.0003
     38 C          61.6496   80.1593   13.4704 C.ar    1  UNL1       -0.0000
     39 C          61.4549   81.3052   14.4185 C.ar    1  UNL1       -0.0003
     40 C          62.3074   82.5333   14.2958 C.ar    1  UNL1       -0.0042
@<TRIPOS>BOND
     1    20    21    1
     2    21    18    1
     3    18    19    1
     4    18     9    1
     5     9    10   ar
     6    10    11   ar
     7    11    12   ar
     8    12    13   ar
     9    13    14   ar
    10    14     5    1
    11     5     6    2
    12     5     7   am
    13     7     8    1
    14     7     4    1
    15     4     1    1
    16     1     2    1
    17     1    22    1
    18    22    34    1
    19    34    35    1
    20    35    36   ar
    21    36    37   ar
    22    37    38   ar
    23    38    39   ar
    24    39    40   ar
    25    22    23    1
    26    23    24   am
    27    24    25    2
    28    24    27    1
    29    27    28    1
    30    28    29    1
    31    29    30   ar
    32    30    31   ar
    33    31    32   ar
    34    32    33   ar
    35    14    15   ar
    36    15    16   ar
    37    16    17   ar
    38    17     9   ar
    39    16    11   ar
    40    40    35   ar
    41    33    29   ar
    42     2     3    1
    43    23    26    1
@<TRIPOS>MOLECULE
*****
 40 43 0 0 0
SMALL
GASTEIGER

@<TRIPOS>ATOM
      1 C          62.7248   89.8666   12.9332 C.3     1  UNL1        0.1484
      2 O          61.3617   89.9232   13.5568 O.3     1  UNL1       -0.3810
      3 H          60.7124   89.5334   12.9507 H       1  UNL1        0.2105
      4 C          62.9013   89.2672   11.5695 C.3     1  UNL1        0.1246
      5 C          61.3867   88.3580    9.6644 C.2     1  UNL1        0.2492
      6 O          60.3532   88.5921    8.6028 O.2     1  UNL1       -0.2699
      7 N          61.8678   89.5013   10.5078 N.am    1  UNL1       -0.2718
      8 C          61.3155   90.8788   10.2896 C.3     1  UNL1        0.1153
      9 C          63.0136   82.7503   12.2459 C.ar    1  UNL1        0.2924
     10 N          63.4755   82.8812   10.8248 N.ar    1  UNL1       -0.1946
     11 C          63.0438   84.2258   10.3190 C.ar    1  UNL1        0.1202
     12 C          63.2202   84.9031    8.9923 C.ar    1  UNL1        0.0225
     13 C          62.6678   86.2804    8.7741 C.ar    1  UNL1        0.0063
     14 C          61.9391   86.9806    9.8827 C.ar    1  UNL1        0.0567
     15 C          61.7628   86.3033   11.2094 C.ar    1  UNL1        0.0437
     16 C          62.3151   84.9259   11.4275 C.ar    1  UNL1        0.1662
     17 O          62.2964   84.0140   12.6184 O.2     1  UNL1       -0.4237
     18 N          63.2307   81.5640   13.1378 N.pl3   1  UNL1       -0.2619
     19 C          64.5417   81.3873   13.8449 C.3     1  UNL1        0.1166
     20 C          60.9243   80.9025   14.1343 C.3     1  UNL1        0.0233
     21 C          62.1368   80.5545   13.3226 C.3     1  UNL1        0.0952
     22 C          63.9112   90.4093   13.6733 C.3     1  UNL1        0.1075
     23 N          64.8898   91.3024   12.9697 N.am    1  UNL1       -0.2695
     24 C          65.6117   92.3727   13.7334 C.2     1  UNL1        0.4020
     25 O          65.3551   92.5500   15.2006 O.2     1  UNL1       -0.2264
     26 H          65.0582   91.1860   12.0067 H       1  UNL1        0.1528
     27 O          66.5902   93.2658   13.0298 O.3     1  UNL1       -0.4291
     28 C          66.1230   94.1682   11.9265 C.3     1  UNL1        0.2447
     29 C          66.7867   94.1149   10.5823 C.ar    1  UNL1        0.0714
     30 C          67.4608   92.9186    9.9786 C.ar    1  UNL1        0.1053
     31 N          67.9836   93.3129    8.6291 N.ar    1  UNL1       -0.2350
     32 C          67.6326   94.7530    8.3987 C.ar    1  UNL1        0.1343
     33 S          66.8929   95.2487    9.6059 S.2     1  UNL1       -0.0652
     34 C          64.1192   90.0589   15.1169 C.3     1  UNL1        0.0485
     35 C          63.8789   88.6561   15.5904 C.ar    1  UNL1       -0.0204
     36 C          63.1137   88.4128   16.8573 C.ar    1  UNL1       -0.0042
     37 C          62.8734   87.0099   17.3308 C.ar    1  UNL1       -0.0003
     38 C          63.3983   85.8503   16.5373 C.ar    1  UNL1       -0.0000
     39 C          64.1635   86.0935   15.2703 C.ar    1  UNL1       -0.0003
     40 C          64.4038   87.4964   14.7969 C.ar    1  UNL1       -0.0042
@<TRIPOS>BOND
     1    20    21    1
     2    21    18    1
     3    18    19    1
     4    18     9    1
     5     9    10   ar
     6    10    11   ar
     7    11    12   ar
     8    12    13   ar
     9    13    14   ar
    10    14     5    1
    11     5     6    2
    12     5     7   am
    13     7     8    1
    14     7     4    1
    15     4     1    1
    16     1     2    1
    17     1    22    1
    18    22    34    1
    19    34    35    1
    20    35    36   ar
    21    36    37   ar
    22    37    38   ar
    23    38    39   ar
    24    39    40   ar
    25    22    23    1
    26    23    24   am
    27    24    25    2
    28    24    27    1
    29    27    28    1
    30    28    29    1
    31    29    30   ar
    32    30    31   ar
    33    31    32   ar
    34    32    33   ar
    35    14    15   ar
    36    15    16   ar
    37    16    17   ar
    38    17     9   ar
    39    16    11   ar
    40    40    35   ar
    41    33    29   ar
    42     2     3    1
    43    23    26    1
@<TRIPOS>MOLECULE
*****
 40 43 0 0 0
SMALL
GASTEIGER

@<TRIPOS>ATOM
      1 C          63.4610   88.0965   12.9782 C.3     1  UNL1        0.1484
      2 O          63.1568   89.2091   12.0193 O.3     1  UNL1       -0.3810
      3 H          63.5461   90.0346   12.3479 H       1  UNL1        0.2105
      4 C          64.2592   88.3721   14.2180 C.3     1  UNL1        0.1246
      5 C          64.0880   90.6587   15.4394 C.2     1  UNL1        0.2492
      6 O          63.5081   91.5080   16.5314 O.2     1  UNL1       -0.2699
      7 N          63.6792   89.2214   15.3100 N.am    1  UNL1       -0.2718
      8 C          62.6904   88.6332   16.2726 C.3     1  UNL1        0.1153
      9 C          66.7685   93.6759   10.4929 C.ar    1  UNL1        0.2924
     10 N          67.7870   93.1049   11.4346 N.ar    1  UNL1       -0.1946
     11 C          67.0543   92.4231   12.5519 C.ar    1  UNL1        0.1202
     12 C          67.5368   91.6854   13.7656 C.ar    1  UNL1        0.0225
     13 C          66.5480   91.0973   14.7280 C.ar    1  UNL1        0.0063
     14 C          65.0768   91.2469   14.4769 C.ar    1  UNL1        0.0567
     15 C          64.5943   91.9846   13.2632 C.ar    1  UNL1        0.0437
     16 C          65.5831   92.5727   12.3008 C.ar    1  UNL1        0.1662
     17 O          65.4065   93.3470   11.0282 O.2     1  UNL1       -0.4237
     18 N          67.0609   94.4414    9.2365 N.pl3   1  UNL1       -0.2619
     19 C          67.9834   93.8643    8.2041 C.3     1  UNL1        0.1166
     20 C          67.1611   96.8341    8.2291 C.3     1  UNL1        0.0233
     21 C          66.4306   95.7839    9.0124 C.3     1  UNL1        0.0952
     22 C          62.9671   86.7083   12.6974 C.3     1  UNL1        0.1075
     23 N          63.7730   85.5221   13.1374 N.am    1  UNL1       -0.2695
     24 C          63.3988   84.7835   14.3882 C.2     1  UNL1        0.4020
     25 O          62.2188   85.2309   15.1989 O.2     1  UNL1       -0.2264
     26 H          64.5475   85.2284   12.6053 H       1  UNL1        0.1528
     27 O          64.2048   83.5973   14.8282 O.3     1  UNL1       -0.4291
     28 C          63.8757   82.2309   14.3043 C.3     1  UNL1        0.2447
     29 C          63.7919   81.9949   12.8254 C.ar    1  UNL1        0.0714
     30 C          64.6517   82.6405   11.7794 C.ar    1  UNL1        0.1053
     31 N          64.2249   82.1165   10.4403 N.ar    1  UNL1       -0.2350
     32 C          63.1013   81.1469   10.6586 C.ar    1  UNL1        0.1343
     33 S          62.8337   81.0718   12.1327 S.2     1  UNL1       -0.0652
     34 C          61.6673   86.5062   11.9765 C.3     1  UNL1        0.0485
     35 C          61.6633   86.2114   10.5057 C.ar    1  UNL1       -0.0204
     36 C          60.5521   86.7274    9.6404 C.ar    1  UNL1       -0.0042
     37 C          60.5481   86.4326    8.1696 C.ar    1  UNL1       -0.0003
     38 C          61.6553   85.6217    7.5643 C.ar    1  UNL1       -0.0000
     39 C          62.7665   85.1057    8.4296 C.ar    1  UNL1       -0.0003
     40 C          62.7705   85.4005    9.9004 C.ar    1  UNL1       -0.0042
@<TRIPOS>BOND
     1    20    21    1
     2    21    18    1
     3    18    19    1
     4    18     9    1
     5     9    10   ar
     6    10    11   ar
     7    11    12   ar
     8    12    13   ar
     9    13    14   ar
    10    14     5    1
    11     5     6    2
    12     5     7   am
    13     7     8    1
    14     7     4    1
    15     4     1    1
    16     1     2    1
    17     1    22    1
    18    22    34    1
    19    34    35    1
    20    35    36   ar
    21    36    37   ar
    22    37    38   ar
    23    38    39   ar
    24    39    40   ar
    25    22    23    1
    26    23    24   am
    27    24    25    2
    28    24    27    1
    29    27    28    1
    30    28    29    1
    31    29    30   ar
    32    30    31   ar
    33    31    32   ar
    34    32    33   ar
    35    14    15   ar
    36    15    16   ar
    37    16    17   ar
    38    17     9   ar
    39    16    11   ar
    40    40    35   ar
    41    33    29   ar
    42     2     3    1
    43    23    26    1
@<TRIPOS>MOLECULE
*****
 40 43 0 0 0
SMALL
GASTEIGER

@<TRIPOS>ATOM
      1 C          62.3109   85.4960   10.1181 C.3     1  UNL1        0.1484
      2 O          63.0097   85.4801    8.7909 O.3     1  UNL1       -0.3810
      3 H          62.5750   86.1043    8.1891 H       1  UNL1        0.2105
      4 C          61.1299   86.3956   10.3331 C.3     1  UNL1        0.1246
      5 C          60.6620   88.5941    9.0303 C.2     1  UNL1        0.2492
      6 O          60.0404   89.3070    7.8660 O.2     1  UNL1       -0.2699
      7 N          60.5083   87.1085    9.1689 N.am    1  UNL1       -0.2718
      8 C          59.7330   86.3357    8.1433 C.3     1  UNL1        0.1153
      9 C          64.8950   92.4014   11.9187 C.ar    1  UNL1        0.2924
     10 N          63.9306   91.7811   12.8857 N.ar    1  UNL1       -0.1946
     11 C          62.9877   90.9124   12.1071 C.ar    1  UNL1        0.1202
     12 C          61.8309   90.0561   12.5297 C.ar    1  UNL1        0.0225
     13 C          61.0557   89.2834   11.5041 C.ar    1  UNL1        0.0063
     14 C          61.4373   89.3669   10.0559 C.ar    1  UNL1        0.0567
     15 C          62.5940   90.2231    9.6332 C.ar    1  UNL1        0.0437
     16 C          63.3692   90.9959   10.6588 C.ar    1  UNL1        0.1662
     17 O          64.5480   91.9162   10.5424 O.2     1  UNL1       -0.4237
     18 N          66.0104   93.3420   12.2668 N.pl3   1  UNL1       -0.2619
     19 C          66.4267   94.4046   11.2935 C.3     1  UNL1        0.1166
     20 C          67.6005   92.0439   13.8595 C.3     1  UNL1        0.0233
     21 C          66.7096   93.2198   13.5882 C.3     1  UNL1        0.0952
     22 C          62.7929   84.6124   11.2302 C.3     1  UNL1        0.1075
     23 N          62.3310   84.8569   12.6363 N.am    1  UNL1       -0.2695
     24 C          63.3206   84.8456   13.7634 C.2     1  UNL1        0.4020
     25 O          64.7721   84.5898   13.4846 O.2     1  UNL1       -0.2264
     26 H          61.3783   85.0248   12.8193 H       1  UNL1        0.1528
     27 O          62.8587   85.0901   15.1695 O.3     1  UNL1       -0.4291
     28 C          63.7093   85.8917   16.1096 C.3     1  UNL1        0.2447
     29 C          63.6230   87.3892   16.1075 C.ar    1  UNL1        0.0714
     30 C          62.9557   88.2355   17.1509 C.ar    1  UNL1        0.1053
     31 N          63.1091   89.6727   16.7498 N.ar    1  UNL1       -0.2350
     32 C          63.8713   89.7147   15.4585 C.ar    1  UNL1        0.1343
     33 S          64.1889   88.3034   15.0615 S.2     1  UNL1       -0.0652
     34 C          63.7368   83.4843   10.9363 C.3     1  UNL1        0.0485
     35 C          63.3361   82.0717   11.2434 C.ar    1  UNL1       -0.0204
     36 C          62.9389   81.6913   12.6389 C.ar    1  UNL1       -0.0042
     37 C          62.5382   80.2788   12.9459 C.ar    1  UNL1       -0.0003
     38 C          62.5347   79.2467   11.8575 C.ar    1  UNL1       -0.0000
     39 C          62.9318   79.6272   10.4619 C.ar    1  UNL1       -0.0003
     40 C          63.3325   81.0397   10.1549 C.ar    1  UNL1       -0.0042
@<TRIPOS>BOND
     1    20    21    1
     2    21    18    1
     3    18    19    1
     4    18     9    1
     5     9    10   ar
     6    10    11   ar
     7    11    12   ar
     8    12    13   ar
     9    13    14   ar
    10    14     5    1
    11     5     6    2
    12     5     7   am
    13     7     8    1
    14     7     4    1
    15     4     1    1
    16     1     2    1
    17     1    22    1
    18    22    34    1
    19    34    35    1
    20    35    36   ar
    21    36    37   ar
    22    37    38   ar
    23    38    39   ar
    24    39    40   ar
    25    22    23    1
    26    23    24   am
    27    24    25    2
    28    24    27    1
    29    27    28    1
    30    28    29    1
    31    29    30   ar
    32    30    31   ar
    33    31    32   ar
    34    32    33   ar
    35    14    15   ar
    36    15    16   ar
    37    16    17   ar
    38    17     9   ar
    39    16    11   ar
    40    40    35   ar
    41    33    29   ar
    42     2     3    1
    43    23    26    1
@<TRIPOS>MOLECULE
*****
 40 43 0 0 0
SMALL
GASTEIGER

@<TRIPOS>ATOM
      1 C          63.1029   89.9710   13.6195 C.3     1  UNL1        0.1484
      2 O          61.6137   90.0535   13.7788 O.3     1  UNL1       -0.3810
      3 H          61.3389   89.5119   14.5351 H       1  UNL1        0.2105
      4 C          63.9132   89.1352   14.5655 C.3     1  UNL1        0.1246
      5 C          63.3836   87.7798   16.7177 C.2     1  UNL1        0.2492
      6 O          63.0313   87.7419   18.1753 O.2     1  UNL1       -0.2699
      7 N          63.5610   89.0973   16.0230 N.am    1  UNL1       -0.2718
      8 C          63.3860   90.3770   16.7858 C.3     1  UNL1        0.1153
      9 C          62.4349   82.0444   14.0792 C.ar    1  UNL1        0.2924
     10 N          63.7921   82.6008   13.7655 N.ar    1  UNL1       -0.1946
     11 C          63.9085   83.9409   14.4293 C.ar    1  UNL1        0.1202
     12 C          65.0188   84.9487   14.4681 C.ar    1  UNL1        0.0225
     13 C          64.8438   86.2283   15.2308 C.ar    1  UNL1        0.0063
     14 C          63.5586   86.5001   15.9549 C.ar    1  UNL1        0.0567
     15 C          62.4483   85.4923   15.9162 C.ar    1  UNL1        0.0437
     16 C          62.6233   84.2126   15.1534 C.ar    1  UNL1        0.1662
     17 O          61.7126   83.0406   14.9370 O.2     1  UNL1       -0.4237
     18 N          61.8949   80.7237   13.6165 N.pl3   1  UNL1       -0.2619
     19 C          60.5648   80.2412   14.1144 C.3     1  UNL1        0.1166
     20 C          62.7716   80.2804   11.2113 C.3     1  UNL1        0.0233
     21 C          62.6850   79.8854   12.6558 C.3     1  UNL1        0.0952
     22 C          63.7818   90.7244   12.5143 C.3     1  UNL1        0.1075
     23 N          64.8954   91.6783   12.8307 N.am    1  UNL1       -0.2695
     24 C          65.3713   92.6475   11.7895 C.2     1  UNL1        0.4020
     25 O          64.7336   92.6629   10.4319 O.2     1  UNL1       -0.2264
     26 H          65.3139   91.6682   13.7217 H       1  UNL1        0.1528
     27 O          66.4849   93.6014   12.1059 O.3     1  UNL1       -0.4291
     28 C          66.3484   95.0547   11.7605 C.3     1  UNL1        0.2447
     29 C          66.6201   95.5218   10.3613 C.ar    1  UNL1        0.0714
     30 C          67.4572   94.8090    9.3408 C.ar    1  UNL1        0.1053
     31 N          67.4570   95.6303    8.0856 N.ar    1  UNL1       -0.2350
     32 C          66.6196   96.8506    8.3302 C.ar    1  UNL1        0.1343
     33 S          66.1024   96.7835    9.7367 S.2     1  UNL1       -0.0652
     34 C          63.3472   90.5239   11.0927 C.3     1  UNL1        0.0485
     35 C          62.4723   89.3598   10.7330 C.ar    1  UNL1       -0.0204
     36 C          61.3103   89.5536    9.8046 C.ar    1  UNL1       -0.0042
     37 C          60.4353   88.3895    9.4449 C.ar    1  UNL1       -0.0003
     38 C          60.7225   87.0316   10.0136 C.ar    1  UNL1       -0.0000
     39 C          61.8845   86.8377   10.9420 C.ar    1  UNL1       -0.0003
     40 C          62.7595   88.0018   11.3017 C.ar    1  UNL1       -0.0042
@<TRIPOS>BOND
     1    20    21    1
     2    21    18    1
     3    18    19    1
     4    18     9    1
     5     9    10   ar
     6    10    11   ar
     7    11    12   ar
     8    12    13   ar
     9    13    14   ar
    10    14     5    1
    11     5     6    2
    12     5     7   am
    13     7     8    1
    14     7     4    1
    15     4     1    1
    16     1     2    1
    17     1    22    1
    18    22    34    1
    19    34    35    1
    20    35    36   ar
    21    36    37   ar
    22    37    38   ar
    23    38    39   ar
    24    39    40   ar
    25    22    23    1
    26    23    24   am
    27    24    25    2
    28    24    27    1
    29    27    28    1
    30    28    29    1
    31    29    30   ar
    32    30    31   ar
    33    31    32   ar
    34    32    33   ar
    35    14    15   ar
    36    15    16   ar
    37    16    17   ar
    38    17     9   ar
    39    16    11   ar
    40    40    35   ar
    41    33    29   ar
    42     2     3    1
    43    23    26    1
@<TRIPOS>MOLECULE
*****
 40 43 0 0 0
SMALL
GASTEIGER

@<TRIPOS>ATOM
      1 C          62.6424   86.0562    9.4704 C.3     1  UNL1        0.1484
      2 O          63.0416   85.5170    8.1288 O.3     1  UNL1       -0.3810
      3 H          63.1992   86.2539    7.5180 H       1  UNL1        0.2105
      4 C          62.5443   87.5377    9.6844 C.3     1  UNL1        0.1246
      5 C          61.0508   89.6172   10.1260 C.2     1  UNL1        0.2492
      6 O          59.7178   90.3001   10.0446 O.2     1  UNL1       -0.2699
      7 N          61.2113   88.2206    9.6029 N.am    1  UNL1       -0.2718
      8 C          60.0386   87.5068    8.9983 C.3     1  UNL1        0.1153
      9 C          65.4788   91.7706   14.1897 C.ar    1  UNL1        0.2924
     10 N          65.6535   92.3251   12.8069 N.ar    1  UNL1       -0.1946
     11 C          64.5687   91.7585   11.9397 C.ar    1  UNL1        0.1202
     12 C          64.2413   91.9495   10.4884 C.ar    1  UNL1        0.0225
     13 C          63.0687   91.2358    9.8839 C.ar    1  UNL1        0.0063
     14 C          62.2235   90.3310   10.7306 C.ar    1  UNL1        0.0567
     15 C          62.5509   90.1399   12.1819 C.ar    1  UNL1        0.0437
     16 C          63.7235   90.8537   12.7865 C.ar    1  UNL1        0.1662
     17 O          64.2859   90.8612   14.1770 O.2     1  UNL1       -0.4237
     18 N          66.3448   92.0724   15.3766 N.pl3   1  UNL1       -0.2619
     19 C          65.7234   92.5431   16.6581 C.3     1  UNL1        0.1166
     20 C          68.7432   92.9840   15.7847 C.3     1  UNL1        0.0233
     21 C          67.8322   91.9034   15.2821 C.3     1  UNL1        0.0952
     22 C          62.3412   85.1140   10.5980 C.3     1  UNL1        0.1075
     23 N          62.3485   83.6329   10.3601 N.am    1  UNL1       -0.2695
     24 C          63.6479   82.8842   10.3320 C.2     1  UNL1        0.4020
     25 O          64.9401   83.6164   10.5418 O.2     1  UNL1       -0.2264
     26 H          61.5004   83.1523   10.2223 H       1  UNL1        0.1528
     27 O          63.6552   81.4032   10.0941 O.3     1  UNL1       -0.4291
     28 C          63.0205   80.4802   11.0917 C.3     1  UNL1        0.2447
     29 C          62.8557   80.9158   12.5175 C.ar    1  UNL1        0.0714
     30 C          63.9525   81.0431   13.5329 C.ar    1  UNL1        0.1053
     31 N          63.3399   81.5066   14.8213 N.ar    1  UNL1       -0.2350
     32 C          61.8645   81.6658   14.6022 C.ar    1  UNL1        0.1343
     33 S          61.5653   81.3006   13.1784 S.2     1  UNL1       -0.0652
     34 C          62.0328   85.6527   11.9634 C.3     1  UNL1        0.0485
     35 C          63.1268   85.7893   12.9805 C.ar    1  UNL1       -0.0204
     36 C          63.4842   87.1424   13.5205 C.ar    1  UNL1       -0.0042
     37 C          64.5782   87.2790   14.5376 C.ar    1  UNL1       -0.0003
     38 C          65.3148   86.0626   15.0147 C.ar    1  UNL1       -0.0000
     39 C          64.9574   84.7095   14.4748 C.ar    1  UNL1       -0.0003
     40 C          63.8634   84.5729   13.4577 C.ar    1  UNL1       -0.0042
@<TRIPOS>BOND
     1    20    21    1
     2    21    18    1
     3    18    19    1
     4    18     9    1
     5     9    10   ar
     6    10    11   ar
     7    11    12   ar
     8    12    13   ar
     9    13    14   ar
    10    14     5    1
    11     5     6    2
    12     5     7   am
    13     7     8    1
    14     7     4    1
    15     4     1    1
    16     1     2    1
    17     1    22    1
    18    22    34    1
    19    34    35    1
    20    35    36   ar
    21    36    37   ar
    22    37    38   ar
    23    38    39   ar
    24    39    40   ar
    25    22    23    1
    26    23    24   am
    27    24    25    2
    28    24    27    1
    29    27    28    1
    30    28    29    1
    31    29    30   ar
    32    30    31   ar
    33    31    32   ar
    34    32    33   ar
    35    14    15   ar
    36    15    16   ar
    37    16    17   ar
    38    17     9   ar
    39    16    11   ar
    40    40    35   ar
    41    33    29   ar
    42     2     3    1
    43    23    26    1
@<TRIPOS>MOLECULE
*****
 40 43 0 0 0
SMALL
GASTEIGER

@<TRIPOS>ATOM
      1 C          63.3589   86.0489   12.7967 C.3     1  UNL1        0.1484
      2 O          62.9533   87.4666   12.5220 O.3     1  UNL1       -0.3810
      3 H          63.3599   88.0524   13.1796 H       1  UNL1        0.2105
      4 C          64.2634   85.7380   13.9524 C.3     1  UNL1        0.1246
      5 C          63.3447   86.2928   16.3184 C.2     1  UNL1        0.2492
      6 O          62.7634   85.8406   17.6252 O.2     1  UNL1       -0.2699
      7 N          63.6821   85.2858   15.2591 N.am    1  UNL1       -0.2718
      8 C          63.4383   83.8265   15.5066 C.3     1  UNL1        0.1153
      9 C          65.3435   91.8384   13.8673 C.ar    1  UNL1        0.2924
     10 N          64.4880   92.0266   15.0849 N.ar    1  UNL1       -0.1946
     11 C          64.0760   90.6705   15.5761 C.ar    1  UNL1        0.1202
     12 C          63.2314   90.2376   16.7377 C.ar    1  UNL1        0.0225
     13 C          62.9876   88.7784   16.9851 C.ar    1  UNL1        0.0063
     14 C          63.5885   87.7521   16.0710 C.ar    1  UNL1        0.0567
     15 C          64.4331   88.1849   14.9094 C.ar    1  UNL1        0.0437
     16 C          64.6769   89.6441   14.6620 C.ar    1  UNL1        0.1662
     17 O          65.4602   90.3659   13.6059 O.2     1  UNL1       -0.4237
     18 N          65.9719   92.9308   13.0538 N.pl3   1  UNL1       -0.2619
     19 C          66.6247   94.0949   13.7384 C.3     1  UNL1        0.1166
     20 C          65.6845   94.0965   10.7498 C.3     1  UNL1        0.0233
     21 C          65.9476   92.8591   11.5558 C.3     1  UNL1        0.0952
     22 C          62.8601   84.9420   11.9159 C.3     1  UNL1        0.1075
     23 N          61.6131   85.1334   11.1044 N.am    1  UNL1       -0.2695
     24 C          61.6737   85.8679    9.7980 C.2     1  UNL1        0.4020
     25 O          62.9814   86.4112    9.3031 O.2     1  UNL1       -0.2264
     26 H          60.7548   84.7768   11.4293 H       1  UNL1        0.1528
     27 O          60.4267   86.0593    8.9865 O.3     1  UNL1       -0.4291
     28 C          59.6529   87.3400    9.0913 C.3     1  UNL1        0.2447
     29 C          60.0710   88.3903   10.0772 C.ar    1  UNL1        0.0714
     30 C          59.7315   88.4133   11.5382 C.ar    1  UNL1        0.1053
     31 N          60.3527   89.6393   12.1392 N.ar    1  UNL1       -0.2350
     32 C          61.0761   90.3741   11.0497 C.ar    1  UNL1        0.1343
     33 S          60.9019   89.6021    9.7753 S.2     1  UNL1       -0.0652
     34 C          63.6081   83.6437   11.8465 C.3     1  UNL1        0.0485
     35 C          62.9826   82.3883   12.3782 C.ar    1  UNL1       -0.0204
     36 C          62.0803   82.4486   13.5749 C.ar    1  UNL1       -0.0042
     37 C          61.4548   81.1933   14.1066 C.ar    1  UNL1       -0.0003
     38 C          61.7316   79.8775   13.4417 C.ar    1  UNL1       -0.0000
     39 C          62.6340   79.8172   12.2450 C.ar    1  UNL1       -0.0003
     40 C          63.2595   81.0726   11.7133 C.ar    1  UNL1       -0.0042
@<TRIPOS>BOND
     1    20    21    1
     2    21    18    1
     3    18    19    1
     4    18     9    1
     5     9    10   ar
     6    10    11   ar
     7    11    12   ar
     8    12    13   ar
     9    13    14   ar
    10    14     5    1
    11     5     6    2
    12     5     7   am
    13     7     8    1
    14     7     4    1
    15     4     1    1
    16     1     2    1
    17     1    22    1
    18    22    34    1
    19    34    35    1
    20    35    36   ar
    21    36    37   ar
    22    37    38   ar
    23    38    39   ar
    24    39    40   ar
    25    22    23    1
    26    23    24   am
    27    24    25    2
    28    24    27    1
    29    27    28    1
    30    28    29    1
    31    29    30   ar
    32    30    31   ar
    33    31    32   ar
    34    32    33   ar
    35    14    15   ar
    36    15    16   ar
    37    16    17   ar
    38    17     9   ar
    39    16    11   ar
    40    40    35   ar
    41    33    29   ar
    42     2     3    1
    43    23    26    1
@<TRIPOS>MOLECULE
*****
 40 43 0 0 0
SMALL
GASTEIGER

@<TRIPOS>ATOM
      1 C          62.9192   88.8539   12.0222 C.3     1  UNL1        0.1484
      2 O          63.0641   89.9928   11.0569 O.3     1  UNL1       -0.3810
      3 H          63.8052   90.5559   11.3300 H       1  UNL1        0.2105
      4 C          63.8550   88.7356   13.1886 C.3     1  UNL1        0.1246
      5 C          64.0818   90.6811   14.8955 C.2     1  UNL1        0.2492
      6 O          63.7214   91.3026   16.2123 O.2     1  UNL1       -0.2699
      7 N          63.4946   89.3571   14.5053 N.am    1  UNL1       -0.2718
      8 C          62.5470   88.6546   15.4319 C.3     1  UNL1        0.1153
      9 C          66.5546   94.1645   10.1513 C.ar    1  UNL1        0.2924
     10 N          67.6104   93.5821   11.0435 N.ar    1  UNL1       -0.1946
     11 C          66.9249   92.7885   12.1160 C.ar    1  UNL1        0.1202
     12 C          67.4567   91.9941   13.2718 C.ar    1  UNL1        0.0225
     13 C          66.5090   91.2916   14.1983 C.ar    1  UNL1        0.0063
     14 C          65.0295   91.3836   13.9690 C.ar    1  UNL1        0.0567
     15 C          64.4977   92.1780   12.8132 C.ar    1  UNL1        0.0437
     16 C          65.4454   92.8805   11.8867 C.ar    1  UNL1        0.1662
     17 O          65.2165   93.7309   10.6724 O.2     1  UNL1       -0.4237
     18 N          66.7946   95.0288    8.9490 N.pl3   1  UNL1       -0.2619
     19 C          67.6719   94.5381    7.8357 C.3     1  UNL1        0.1166
     20 C          65.2410   96.8546    9.9502 C.3     1  UNL1        0.0233
     21 C          66.1575   96.3838    8.8601 C.3     1  UNL1        0.0952
     22 C          61.8385   87.8333   11.8213 C.3     1  UNL1        0.1075
     23 N          62.1283   86.3793   12.0491 N.am    1  UNL1       -0.2695
     24 C          62.5682   85.5141   10.9056 C.2     1  UNL1        0.4020
     25 O          62.7184   86.1028    9.5341 O.2     1  UNL1       -0.2264
     26 H          62.0297   85.9928   12.9492 H       1  UNL1        0.1528
     27 O          62.8581   84.0600   11.1334 O.3     1  UNL1       -0.4291
     28 C          63.8356   83.6473   12.1935 C.3     1  UNL1        0.2447
     29 C          63.6299   84.0832   13.6140 C.ar    1  UNL1        0.0714
     30 C          64.5039   85.0311   14.3807 C.ar    1  UNL1        0.1053
     31 N          63.9284   85.1816   15.7577 N.ar    1  UNL1       -0.2350
     32 C          62.6986   84.3267   15.8421 C.ar    1  UNL1        0.1343
     33 S          62.5142   83.6479   14.5171 S.2     1  UNL1       -0.0652
     34 C          60.4679   88.2667   11.3926 C.3     1  UNL1        0.0485
     35 C          60.0861   88.2208    9.9428 C.ar    1  UNL1       -0.0204
     36 C          59.5658   86.9477    9.3441 C.ar    1  UNL1       -0.0042
     37 C          59.1840   86.9018    7.8943 C.ar    1  UNL1       -0.0003
     38 C          59.3224   88.1291    7.0431 C.ar    1  UNL1       -0.0000
     39 C          59.8426   89.4022    7.6417 C.ar    1  UNL1       -0.0003
     40 C          60.2245   89.4481    9.0915 C.ar    1  UNL1       -0.0042
@<TRIPOS>BOND
     1    20    21    1
     2    21    18    1
     3    18    19    1
     4    18     9    1
     5     9    10   ar
     6    10    11   ar
     7    11    12   ar
     8    12    13   ar
     9    13    14   ar
    10    14     5    1
    11     5     6    2
    12     5     7   am
    13     7     8    1
    14     7     4    1
    15     4     1    1
    16     1     2    1
    17     1    22    1
    18    22    34    1
    19    34    35    1
    20    35    36   ar
    21    36    37   ar
    22    37    38   ar
    23    38    39   ar
    24    39    40   ar
    25    22    23    1
    26    23    24   am
    27    24    25    2
    28    24    27    1
    29    27    28    1
    30    28    29    1
    31    29    30   ar
    32    30    31   ar
    33    31    32   ar
    34    32    33   ar
    35    14    15   ar
    36    15    16   ar
    37    16    17   ar
    38    17     9   ar
    39    16    11   ar
    40    40    35   ar
    41    33    29   ar
    42     2     3    1
    43    23    26    1
@<TRIPOS>MOLECULE
*****
 40 43 0 0 0
SMALL
GASTEIGER

@<TRIPOS>ATOM
      1 C          62.4870   86.3371   11.7588 C.3     1  UNL1        0.1484
      2 O          61.4103   85.3840   11.3319 O.3     1  UNL1       -0.3810
      3 H          60.8212   85.8240   10.6992 H       1  UNL1        0.2105
      4 C          62.5184   87.7305   11.2042 C.3     1  UNL1        0.1246
      5 C          61.3273   90.0387   11.2619 C.2     1  UNL1        0.2492
      6 O          60.0686   90.8528   11.2074 O.2     1  UNL1       -0.2699
      7 N          61.2596   88.5445   11.1496 N.am    1  UNL1       -0.2718
      8 C          59.9332   87.8642   10.9827 C.3     1  UNL1        0.1153
      9 C          66.8154   92.2543   13.6555 C.ar    1  UNL1        0.2924
     10 N          66.6166   92.6478   12.2218 N.ar    1  UNL1       -0.1946
     11 C          65.3066   92.0796   11.7625 C.ar    1  UNL1        0.1202
     12 C          64.5910   92.1440   10.4457 C.ar    1  UNL1        0.0225
     13 C          63.2646   91.4638   10.2789 C.ar    1  UNL1        0.0063
     14 C          62.6538   90.7190   11.4288 C.ar    1  UNL1        0.0567
     15 C          63.3693   90.6546   12.7455 C.ar    1  UNL1        0.0437
     16 C          64.6957   91.3348   12.9124 C.ar    1  UNL1        0.1662
     17 O          65.6282   91.4429   14.0823 O.2     1  UNL1       -0.4237
     18 N          67.9943   92.6099   14.5121 N.pl3   1  UNL1       -0.2619
     19 C          69.3575   92.0885   14.1657 C.3     1  UNL1        0.1166
     20 C          68.9533   94.3157   16.2210 C.3     1  UNL1        0.0233
     21 C          67.8101   93.4868   15.7150 C.3     1  UNL1        0.0952
     22 C          63.5323   85.8969   12.7403 C.3     1  UNL1        0.1075
     23 N          63.9211   84.4505   12.8237 N.am    1  UNL1       -0.2695
     24 C          64.1380   83.6586   11.5684 C.2     1  UNL1        0.4020
     25 O          63.9661   84.3130   10.2297 O.2     1  UNL1       -0.2264
     26 H          64.0339   84.0209   13.7023 H       1  UNL1        0.1528
     27 O          64.5268   82.2122   11.6517 O.3     1  UNL1       -0.4291
     28 C          64.3396   81.4580   12.9347 C.3     1  UNL1        0.2447
     29 C          62.9686   81.0137   13.3504 C.ar    1  UNL1        0.0714
     30 C          62.3855   79.6465   13.1475 C.ar    1  UNL1        0.1053
     31 N          60.9964   79.6463   13.7136 N.ar    1  UNL1       -0.2350
     32 C          60.7209   81.0133   14.2663 C.ar    1  UNL1        0.1343
     33 S          61.9398   81.8584   14.0418 S.2     1  UNL1       -0.0652
     34 C          64.1889   86.9029   13.6385 C.3     1  UNL1        0.0485
     35 C          63.7400   87.0425   15.0629 C.ar    1  UNL1       -0.0204
     36 C          63.5336   88.4055   15.6541 C.ar    1  UNL1       -0.0042
     37 C          63.0847   88.5450   17.0786 C.ar    1  UNL1       -0.0003
     38 C          62.8422   87.3215   17.9118 C.ar    1  UNL1       -0.0000
     39 C          63.0486   85.9585   17.3206 C.ar    1  UNL1       -0.0003
     40 C          63.4975   85.8190   15.8961 C.ar    1  UNL1       -0.0042
@<TRIPOS>BOND
     1    20    21    1
     2    21    18    1
     3    18    19    1
     4    18     9    1
     5     9    10   ar
     6    10    11   ar
     7    11    12   ar
     8    12    13   ar
     9    13    14   ar
    10    14     5    1
    11     5     6    2
    12     5     7   am
    13     7     8    1
    14     7     4    1
    15     4     1    1
    16     1     2    1
    17     1    22    1
    18    22    34    1
    19    34    35    1
    20    35    36   ar
    21    36    37   ar
    22    37    38   ar
    23    38    39   ar
    24    39    40   ar
    25    22    23    1
    26    23    24   am
    27    24    25    2
    28    24    27    1
    29    27    28    1
    30    28    29    1
    31    29    30   ar
    32    30    31   ar
    33    31    32   ar
    34    32    33   ar
    35    14    15   ar
    36    15    16   ar
    37    16    17   ar
    38    17     9   ar
    39    16    11   ar
    40    40    35   ar
    41    33    29   ar
    42     2     3    1
    43    23    26    1
