@<TRIPOS>MOLECULE
*****
 40 43 0 0 0
SMALL
GASTEIGER

@<TRIPOS>ATOM
      1 C          64.2489   90.1017   14.2693 C.ar    1  UNL1        0.0533
      2 C          65.1730   91.1695   13.7636 C.ar    1  UNL1        0.0488
      3 C          65.5284   92.3320   14.6426 C.ar    1  UNL1        0.1334
      4 N          64.9596   92.4265   16.0274 N.ar    1  UNL1       -0.2288
      5 C          64.0354   91.3586   16.5331 C.ar    1  UNL1        0.1060
      6 C          63.6801   90.1963   15.6542 C.ar    1  UNL1        0.0856
      7 C          62.7560   89.1284   16.1599 C.2     1  UNL1        0.2486
      8 O          61.2708   89.3091   16.0520 O.2     1  UNL1       -0.2700
      9 N          63.3171   87.8800   16.7734 N.am    1  UNL1       -0.3004
     10 H          64.2919   87.7614   16.8443 H       1  UNL1        0.1498
     11 C          62.3930   86.8121   17.2792 C.3     1  UNL1        0.0944
     12 C          62.7712   85.3669   17.1431 C.3     1  UNL1        0.0476
     13 C          63.0994   84.8015   15.7931 C.ar    1  UNL1       -0.0204
     14 C          62.1762   83.8087   15.1510 C.ar    1  UNL1       -0.0028
     15 C          62.5044   83.2433   13.8010 C.ar    1  UNL1        0.0196
     16 C          63.7558   83.6707   13.0929 C.ar    1  UNL1        0.1217
     17 C          64.6790   84.6635   13.7349 C.ar    1  UNL1        0.0196
     18 C          64.3508   85.2289   15.0850 C.ar    1  UNL1       -0.0028
     19 S          64.0840   83.1053   11.7429 S.O2    1  UNL1        0.0572
     20 N          64.4123   82.5399   10.3929 N.3     1  UNL1       -0.2035
     21 O          64.7248   81.9170   12.3965 O.2     1  UNL1       -0.1532
     22 O          63.4432   84.2937   11.0894 O.2     1  UNL1       -0.1532
     23 H          64.8975   81.6499   10.5060 H       1  UNL1        0.1442
     24 H          65.0119   83.1923    9.8877 H       1  UNL1        0.1442
     25 N          63.8936   88.9394   13.3903 N.pl3   1  UNL1       -0.3338
     26 H          64.2161   88.0365   13.6138 H       1  UNL1        0.1468
     27 C          62.4602   87.9754   11.4496 C.3     1  UNL1        0.0212
     28 C          63.0469   89.1527   12.1706 C.3     1  UNL1        0.0691
     29 C          62.7868   90.5433   11.6720 C.3     1  UNL1        0.0212
     30 N          66.4524   93.3998   14.1369 N.pl3   1  UNL1       -0.2979
     31 H          66.9143   93.9927   14.7728 H       1  UNL1        0.1536
     32 C          66.6728   93.5642   12.6623 C.ar    1  UNL1        0.0500
     33 C          67.2111   92.4222   11.8524 C.ar    1  UNL1        0.0162
     34 C          67.4314   92.5867   10.3778 C.ar    1  UNL1        0.0209
     35 C          67.1133   93.8932    9.7131 C.ar    1  UNL1        0.0880
     36 N          67.2260   94.3480    8.2882 N.ar    1  UNL1       -0.2363
     37 C          66.7574   95.7711    8.2174 C.ar    1  UNL1        0.1345
     38 S          66.3550   96.1959    9.5986 S.2     1  UNL1       -0.0645
     39 C          66.5750   95.0352   10.5230 C.ar    1  UNL1        0.0498
     40 C          66.3547   94.8708   11.9976 C.ar    1  UNL1        0.0227
@<TRIPOS>BOND
     1    27    28    1
     2    28    29    1
     3    28    25    1
     4    25     1    1
     5     1     2   ar
     6     2     3   ar
     7     3    30    1
     8    30    32    1
     9    32    33   ar
    10    33    34   ar
    11    34    35   ar
    12    35    36   ar
    13    36    37   ar
    14    37    38   ar
    15    38    39   ar
    16    39    40   ar
    17     3     4   ar
    18     4     5   ar
    19     5     6   ar
    20     6     7    1
    21     7     8    2
    22     7     9   am
    23     9    11    1
    24    11    12    1
    25    12    13    1
    26    13    14   ar
    27    14    15   ar
    28    15    16   ar
    29    16    19    1
    30    19    20    1
    31    19    21    2
    32    19    22    2
    33    16    17   ar
    34    17    18   ar
    35     6     1   ar
    36    18    13   ar
    37    40    32   ar
    38    39    35   ar
    39    25    26    1
    40    30    31    1
    41     9    10    1
    42    20    23    1
    43    20    24    1
@<TRIPOS>MOLECULE
*****
 40 43 0 0 0
SMALL
GASTEIGER

@<TRIPOS>ATOM
      1 C          61.7570   88.1887    9.9633 C.ar    1  UNL1        0.0533
      2 C          62.5261   88.3688   11.2384 C.ar    1  UNL1        0.0488
      3 C          62.1955   89.5055   12.1597 C.ar    1  UNL1        0.1334
      4 N          61.0956   90.4620   11.8058 N.ar    1  UNL1       -0.2288
      5 C          60.3264   90.2820   10.5306 C.ar    1  UNL1        0.1060
      6 C          60.6571   89.1454    9.6095 C.ar    1  UNL1        0.0856
      7 C          59.8879   88.9653    8.3343 C.2     1  UNL1        0.2486
      8 O          59.1659   87.6775    8.0695 O.2     1  UNL1       -0.2700
      9 N          59.8408   90.0731    7.3241 N.am    1  UNL1       -0.3004
     10 H          60.3148   90.9183    7.4979 H       1  UNL1        0.1498
     11 C          59.0717   89.8930    6.0489 C.3     1  UNL1        0.0944
     12 C          58.7602   91.0805    5.1869 C.3     1  UNL1        0.0476
     13 C          59.8070   91.6341    4.2663 C.ar    1  UNL1       -0.0204
     14 C          61.2263   91.1606    4.3733 C.ar    1  UNL1       -0.0028
     15 C          62.2732   91.7142    3.4526 C.ar    1  UNL1        0.0196
     16 C          61.9008   92.7414    2.4250 C.ar    1  UNL1        0.1217
     17 C          60.4815   93.2150    2.3179 C.ar    1  UNL1        0.0196
     18 C          59.4346   92.6613    3.2386 C.ar    1  UNL1       -0.0028
     19 S          62.9475   93.2951    1.5043 S.O2    1  UNL1        0.0572
     20 N          63.9944   93.8487    0.5837 N.3     1  UNL1       -0.2035
     21 O          63.9245   92.2700    1.9988 O.2     1  UNL1       -0.1532
     22 O          61.9705   94.3203    1.0099 O.2     1  UNL1       -0.1532
     23 H          64.8580   93.3170    0.6920 H       1  UNL1        0.1442
     24 H          64.1665   94.8274    0.8139 H       1  UNL1        0.1442
     25 N          62.0877   87.0521    9.0421 N.pl3   1  UNL1       -0.3338
     26 H          62.0833   87.1911    8.0674 H       1  UNL1        0.1468
     27 C          61.8582   85.2804   10.9285 C.3     1  UNL1        0.0212
     28 C          62.4251   85.7036    9.6058 C.3     1  UNL1        0.0691
     29 C          63.3295   84.7784    8.8468 C.3     1  UNL1        0.0212
     30 N          62.9646   89.6855   13.4349 N.pl3   1  UNL1       -0.2979
     31 H          62.7521   89.1315   14.2204 H       1  UNL1        0.1536
     32 C          64.0577   90.7099   13.5131 C.ar    1  UNL1        0.0500
     33 C          64.4418   91.4916   12.2919 C.ar    1  UNL1        0.0162
     34 C          65.5348   92.5159   12.3702 C.ar    1  UNL1        0.0209
     35 C          66.2437   92.7585   13.6696 C.ar    1  UNL1        0.0880
     36 N          67.3518   93.6957   14.0487 N.ar    1  UNL1       -0.2363
     37 C          67.6525   93.4931   15.5043 C.ar    1  UNL1        0.1345
     38 S          66.7303   92.4308   16.0247 S.2     1  UNL1       -0.0645
     39 C          65.8596   91.9767   14.8908 C.ar    1  UNL1        0.0498
     40 C          64.7666   90.9524   14.8126 C.ar    1  UNL1        0.0227
@<TRIPOS>BOND
     1    27    28    1
     2    28    29    1
     3    28    25    1
     4    25     1    1
     5     1     2   ar
     6     2     3   ar
     7     3    30    1
     8    30    32    1
     9    32    33   ar
    10    33    34   ar
    11    34    35   ar
    12    35    36   ar
    13    36    37   ar
    14    37    38   ar
    15    38    39   ar
    16    39    40   ar
    17     3     4   ar
    18     4     5   ar
    19     5     6   ar
    20     6     7    1
    21     7     8    2
    22     7     9   am
    23     9    11    1
    24    11    12    1
    25    12    13    1
    26    13    14   ar
    27    14    15   ar
    28    15    16   ar
    29    16    19    1
    30    19    20    1
    31    19    21    2
    32    19    22    2
    33    16    17   ar
    34    17    18   ar
    35     6     1   ar
    36    18    13   ar
    37    40    32   ar
    38    39    35   ar
    39    25    26    1
    40    30    31    1
    41     9    10    1
    42    20    23    1
    43    20    24    1
@<TRIPOS>MOLECULE
*****
 40 43 0 0 0
SMALL
GASTEIGER

@<TRIPOS>ATOM
      1 C          61.1649   87.1891    9.5123 C.ar    1  UNL1        0.0533
      2 C          62.0767   87.0452   10.6946 C.ar    1  UNL1        0.0488
      3 C          62.4677   88.2541   11.4919 C.ar    1  UNL1        0.1334
      4 N          61.9468   89.6070   11.1069 N.ar    1  UNL1       -0.2288
      5 C          61.0349   89.7510    9.9245 C.ar    1  UNL1        0.1060
      6 C          60.6440   88.5421    9.1273 C.ar    1  UNL1        0.0856
      7 C          59.7322   88.6861    7.9450 C.2     1  UNL1        0.2486
      8 O          58.7162   87.6233    7.6476 O.2     1  UNL1       -0.2700
      9 N          59.8363   89.8927    7.0601 N.am    1  UNL1       -0.3004
     10 H          60.5031   90.5902    7.2553 H       1  UNL1        0.1498
     11 C          58.9245   90.0367    5.8778 C.3     1  UNL1        0.0944
     12 C          58.7853   91.3653    5.1954 C.3     1  UNL1        0.0476
     13 C          59.8234   91.8149    4.2104 C.ar    1  UNL1       -0.0204
     14 C          61.2310   91.3083    4.3204 C.ar    1  UNL1       -0.0028
     15 C          62.2691   91.7579    3.3354 C.ar    1  UNL1        0.0196
     16 C          61.8996   92.7141    2.2404 C.ar    1  UNL1        0.1217
     17 C          60.4920   93.2207    2.1303 C.ar    1  UNL1        0.0196
     18 C          59.4539   92.7711    3.1154 C.ar    1  UNL1       -0.0028
     19 S          62.9376   93.1637    1.2553 S.O2    1  UNL1        0.0572
     20 N          63.9757   93.6133    0.2703 N.3     1  UNL1       -0.2035
     21 O          64.0130   92.5773    2.1210 O.2     1  UNL1       -0.1532
     22 O          61.8622   93.7502    0.3896 O.2     1  UNL1       -0.1532
     23 H          64.9005   93.3392    0.6021 H       1  UNL1        0.1442
     24 H          63.9360   94.6280    0.1739 H       1  UNL1        0.1442
     25 N          60.7740   85.9801    8.7150 N.pl3   1  UNL1       -0.3338
     26 H          59.8628   85.6148    8.7896 H       1  UNL1        0.1468
     27 C          63.2013   85.1878    8.2349 C.3     1  UNL1        0.0212
     28 C          61.7713   85.3278    7.8041 C.3     1  UNL1        0.0691
     29 C          61.3386   84.8155    6.4623 C.3     1  UNL1        0.0212
     30 N          63.3795   88.1101   12.6742 N.pl3   1  UNL1       -0.2979
     31 H          63.8597   88.8952   13.0240 H       1  UNL1        0.1536
     32 C          63.5597   86.7700   13.3236 C.ar    1  UNL1        0.0500
     33 C          64.2709   86.6639   14.6399 C.ar    1  UNL1        0.0162
     34 C          64.4510   85.3237   15.2892 C.ar    1  UNL1        0.0209
     35 C          63.9199   84.0897   14.6221 C.ar    1  UNL1        0.0880
     36 N          63.9469   82.6435   15.0192 N.ar    1  UNL1       -0.2363
     37 C          63.2523   81.8558   13.9482 C.ar    1  UNL1        0.1345
     38 S          62.7960   82.8151   12.8892 S.2     1  UNL1       -0.0645
     39 C          63.2086   84.1958   13.3058 C.ar    1  UNL1        0.0498
     40 C          63.0285   85.5360   12.6565 C.ar    1  UNL1        0.0227
@<TRIPOS>BOND
     1    27    28    1
     2    28    29    1
     3    28    25    1
     4    25     1    1
     5     1     2   ar
     6     2     3   ar
     7     3    30    1
     8    30    32    1
     9    32    33   ar
    10    33    34   ar
    11    34    35   ar
    12    35    36   ar
    13    36    37   ar
    14    37    38   ar
    15    38    39   ar
    16    39    40   ar
    17     3     4   ar
    18     4     5   ar
    19     5     6   ar
    20     6     7    1
    21     7     8    2
    22     7     9   am
    23     9    11    1
    24    11    12    1
    25    12    13    1
    26    13    14   ar
    27    14    15   ar
    28    15    16   ar
    29    16    19    1
    30    19    20    1
    31    19    21    2
    32    19    22    2
    33    16    17   ar
    34    17    18   ar
    35     6     1   ar
    36    18    13   ar
    37    40    32   ar
    38    39    35   ar
    39    25    26    1
    40    30    31    1
    41     9    10    1
    42    20    23    1
    43    20    24    1
@<TRIPOS>MOLECULE
*****
 40 43 0 0 0
SMALL
GASTEIGER

@<TRIPOS>ATOM
      1 C          60.9557   87.3995   10.1675 C.ar    1  UNL1        0.0533
      2 C          60.1052   87.4159    8.9320 C.ar    1  UNL1        0.0488
      3 C          59.7588   88.7202    8.2771 C.ar    1  UNL1        0.1334
      4 N          60.2629   90.0081    8.8578 N.ar    1  UNL1       -0.2288
      5 C          61.1134   89.9917   10.0934 C.ar    1  UNL1        0.1060
      6 C          61.4598   88.6875   10.7481 C.ar    1  UNL1        0.0856
      7 C          62.3102   88.6710   11.9836 C.2     1  UNL1        0.2486
      8 O          63.2329   87.5173   12.2437 O.2     1  UNL1       -0.2700
      9 N          62.2380   89.8083   12.9590 N.am    1  UNL1       -0.3004
     10 H          61.6324   90.5655   12.7883 H       1  UNL1        0.1498
     11 C          63.0885   89.7918   14.1945 C.3     1  UNL1        0.0944
     12 C          63.9748   90.9601   14.5104 C.3     1  UNL1        0.0476
     13 C          64.8705   91.5300   13.4507 C.ar    1  UNL1       -0.0204
     14 C          66.3052   91.8347   13.7655 C.ar    1  UNL1       -0.0028
     15 C          67.2008   92.4046   12.7058 C.ar    1  UNL1        0.0196
     16 C          66.6619   92.6698   11.3313 C.ar    1  UNL1        0.1217
     17 C          65.2273   92.3652   11.0165 C.ar    1  UNL1        0.0196
     18 C          64.3316   91.7952   12.0763 C.ar    1  UNL1       -0.0028
     19 S          67.5575   93.2398   10.2716 S.O2    1  UNL1        0.0572
     20 N          68.4532   93.8096    9.2119 N.3     1  UNL1       -0.2035
     21 O          67.9134   91.8523    9.8263 O.2     1  UNL1       -0.1532
     22 O          67.2017   94.6272   10.7169 O.2     1  UNL1       -0.1532
     23 H          68.8843   93.0492    8.6862 H       1  UNL1        0.1442
     24 H          69.1803   94.3755    9.6494 H       1  UNL1        0.1442
     25 N          61.3020   86.0951   10.8223 N.pl3   1  UNL1       -0.3338
     26 H          60.8094   85.7996   11.6219 H       1  UNL1        0.1468
     27 C          63.0141   84.1605   11.0979 C.3     1  UNL1        0.0212
     28 C          62.3988   85.2410   10.2589 C.3     1  UNL1        0.0691
     29 C          62.8804   85.4674    8.8565 C.3     1  UNL1        0.0212
     30 N          58.9083   88.7366    7.0417 N.pl3   1  UNL1       -0.2979
     31 H          58.2740   88.0034    6.8709 H       1  UNL1        0.1536
     32 C          59.0244   89.8704    6.0663 C.ar    1  UNL1        0.0500
     33 C          57.8227   90.7079    5.7434 C.ar    1  UNL1        0.0162
     34 C          57.9387   91.8417    4.7681 C.ar    1  UNL1        0.0209
     35 C          59.2566   92.1379    4.1158 C.ar    1  UNL1        0.0880
     36 N          59.6726   93.1819    3.1223 N.ar    1  UNL1       -0.2363
     37 C          61.1314   92.9895    2.8312 C.ar    1  UNL1        0.1345
     38 S          61.6171   91.8266    3.6448 S.2     1  UNL1       -0.0645
     39 C          60.4583   91.3003    4.4387 C.ar    1  UNL1        0.0498
     40 C          60.3422   90.1666    5.4140 C.ar    1  UNL1        0.0227
@<TRIPOS>BOND
     1    27    28    1
     2    28    29    1
     3    28    25    1
     4    25     1    1
     5     1     2   ar
     6     2     3   ar
     7     3    30    1
     8    30    32    1
     9    32    33   ar
    10    33    34   ar
    11    34    35   ar
    12    35    36   ar
    13    36    37   ar
    14    37    38   ar
    15    38    39   ar
    16    39    40   ar
    17     3     4   ar
    18     4     5   ar
    19     5     6   ar
    20     6     7    1
    21     7     8    2
    22     7     9   am
    23     9    11    1
    24    11    12    1
    25    12    13    1
    26    13    14   ar
    27    14    15   ar
    28    15    16   ar
    29    16    19    1
    30    19    20    1
    31    19    21    2
    32    19    22    2
    33    16    17   ar
    34    17    18   ar
    35     6     1   ar
    36    18    13   ar
    37    40    32   ar
    38    39    35   ar
    39    25    26    1
    40    30    31    1
    41     9    10    1
    42    20    23    1
    43    20    24    1
@<TRIPOS>MOLECULE
*****
 40 43 0 0 0
SMALL
GASTEIGER

@<TRIPOS>ATOM
      1 C          63.7355   90.2571   13.4966 C.ar    1  UNL1        0.0533
      2 C          64.2325   91.6339   13.1689 C.ar    1  UNL1        0.0488
      3 C          65.5239   92.1241   13.7538 C.ar    1  UNL1        0.1334
      4 N          66.3183   91.2375   14.6664 N.ar    1  UNL1       -0.2288
      5 C          65.8213   89.8606   14.9941 C.ar    1  UNL1        0.1060
      6 C          64.5300   89.3705   14.4093 C.ar    1  UNL1        0.0856
      7 C          64.0330   87.9937   14.7370 C.2     1  UNL1        0.2486
      8 O          63.2574   87.7569   15.9989 O.2     1  UNL1       -0.2700
      9 N          64.3116   86.8537   13.8028 N.am    1  UNL1       -0.3004
     10 H          64.8206   87.0090   12.9746 H       1  UNL1        0.1498
     11 C          63.8146   85.4769   14.1305 C.3     1  UNL1        0.0944
     12 C          63.3303   84.5738   13.0350 C.3     1  UNL1        0.0476
     13 C          62.5760   85.1448   11.8710 C.ar    1  UNL1       -0.0204
     14 C          62.8371   84.6344   10.4848 C.ar    1  UNL1       -0.0028
     15 C          62.0828   85.2054    9.3208 C.ar    1  UNL1        0.0196
     16 C          61.0672   86.2867    9.5429 C.ar    1  UNL1        0.1217
     17 C          60.8060   86.7971   10.9290 C.ar    1  UNL1        0.0196
     18 C          61.5604   86.2261   12.0931 C.ar    1  UNL1       -0.0028
     19 S          60.3128   86.8577    8.3790 S.O2    1  UNL1        0.0572
     20 N          59.5584   87.4288    7.2151 N.3     1  UNL1       -0.2035
     21 O          59.8053   87.9668    9.2521 O.2     1  UNL1       -0.1532
     22 O          60.8203   85.7486    7.5058 O.2     1  UNL1       -0.1532
     23 H          59.0620   88.2693    7.5110 H       1  UNL1        0.1442
     24 H          58.8877   86.7402    6.8738 H       1  UNL1        0.1442
     25 N          62.4442   89.7669   12.9118 N.pl3   1  UNL1       -0.3338
     26 H          61.8595   89.1740   13.4370 H       1  UNL1        0.1468
     27 C          63.0332   90.0947   10.4027 C.3     1  UNL1        0.0212
     28 C          62.0435   90.1801   11.5266 C.3     1  UNL1        0.0691
     29 C          60.6531   90.6787   11.2653 C.3     1  UNL1        0.0212
     30 N          66.0209   93.5009   13.4260 N.pl3   1  UNL1       -0.2979
     31 H          66.1023   94.1771   14.1370 H       1  UNL1        0.1536
     32 C          66.3940   93.8474   12.0150 C.ar    1  UNL1        0.0500
     33 C          67.0067   92.8077   11.1244 C.ar    1  UNL1        0.0162
     34 C          67.3798   93.1542    9.7134 C.ar    1  UNL1        0.0209
     35 C          67.1401   94.5406    9.1932 C.ar    1  UNL1        0.0880
     36 N          67.4027   95.1707    7.8576 N.ar    1  UNL1       -0.2363
     37 C          66.9522   96.6000    7.9228 C.ar    1  UNL1        0.1345
     38 S          66.4112   96.8531    9.2988 S.2     1  UNL1       -0.0645
     39 C          66.5273   95.5803   10.0839 C.ar    1  UNL1        0.0498
     40 C          66.1543   95.2338   11.4949 C.ar    1  UNL1        0.0227
@<TRIPOS>BOND
     1    27    28    1
     2    28    29    1
     3    28    25    1
     4    25     1    1
     5     1     2   ar
     6     2     3   ar
     7     3    30    1
     8    30    32    1
     9    32    33   ar
    10    33    34   ar
    11    34    35   ar
    12    35    36   ar
    13    36    37   ar
    14    37    38   ar
    15    38    39   ar
    16    39    40   ar
    17     3     4   ar
    18     4     5   ar
    19     5     6   ar
    20     6     7    1
    21     7     8    2
    22     7     9   am
    23     9    11    1
    24    11    12    1
    25    12    13    1
    26    13    14   ar
    27    14    15   ar
    28    15    16   ar
    29    16    19    1
    30    19    20    1
    31    19    21    2
    32    19    22    2
    33    16    17   ar
    34    17    18   ar
    35     6     1   ar
    36    18    13   ar
    37    40    32   ar
    38    39    35   ar
    39    25    26    1
    40    30    31    1
    41     9    10    1
    42    20    23    1
    43    20    24    1
@<TRIPOS>MOLECULE
*****
 40 43 0 0 0
SMALL
GASTEIGER

@<TRIPOS>ATOM
      1 C          63.4399   89.1889   13.0792 C.ar    1  UNL1        0.0533
      2 C          63.1093   87.9574   12.2893 C.ar    1  UNL1        0.0488
      3 C          63.3651   86.5999   12.8741 C.ar    1  UNL1        0.1334
      4 N          63.9514   86.4740   14.2490 N.ar    1  UNL1       -0.2288
      5 C          64.2821   87.7056   15.0390 C.ar    1  UNL1        0.1060
      6 C          64.0263   89.0629   14.4542 C.ar    1  UNL1        0.0856
      7 C          64.3569   90.2944   15.2442 C.2     1  UNL1        0.2486
      8 O          63.4890   90.7007   16.3982 O.2     1  UNL1       -0.2700
      9 N          65.5554   91.1197   14.8801 N.am    1  UNL1       -0.3004
     10 H          66.1250   90.8531   14.1227 H       1  UNL1        0.1498
     11 C          65.8860   92.3512   15.6701 C.3     1  UNL1        0.0944
     12 C          66.8367   93.3680   15.1112 C.3     1  UNL1        0.0476
     13 C          66.8003   93.7051   13.6500 C.ar    1  UNL1       -0.0204
     14 C          66.4106   95.0845   13.2079 C.ar    1  UNL1       -0.0028
     15 C          66.3742   95.4216   11.7467 C.ar    1  UNL1        0.0196
     16 C          66.7276   94.3792   10.7275 C.ar    1  UNL1        0.1217
     17 C          67.1173   92.9998   11.1696 C.ar    1  UNL1        0.0196
     18 C          67.1536   92.6628   12.6308 C.ar    1  UNL1       -0.0028
     19 S          66.6912   94.7162    9.2664 S.O2    1  UNL1        0.0572
     20 N          66.6549   95.0531    7.8052 N.3     1  UNL1       -0.2035
     21 O          67.5328   93.5111    8.9676 O.2     1  UNL1       -0.1532
     22 O          65.8496   95.9214    9.5651 O.2     1  UNL1       -0.1532
     23 H          67.1863   94.3569    7.2824 H       1  UNL1        0.1442
     24 H          67.0660   95.9750    7.6585 H       1  UNL1        0.1442
     25 N          63.1841   90.5463   12.4943 N.pl3   1  UNL1       -0.3338
     26 H          63.5377   91.3493   12.9409 H       1  UNL1        0.1468
     27 C          63.0486   91.1839    9.9794 C.3     1  UNL1        0.0212
     28 C          62.3896   90.6802   11.2291 C.3     1  UNL1        0.0691
     29 C          60.9360   90.3103   11.2137 C.3     1  UNL1        0.0212
     30 N          63.0345   85.3684   12.0841 N.pl3   1  UNL1       -0.2979
     31 H          63.2278   84.4779   12.4567 H       1  UNL1        0.1536
     32 C          62.4093   85.4938   10.7263 C.ar    1  UNL1        0.0500
     33 C          63.0666   84.8596    9.5365 C.ar    1  UNL1        0.0162
     34 C          62.4415   84.9850    8.1787 C.ar    1  UNL1        0.0209
     35 C          61.1590   85.7446    8.0108 C.ar    1  UNL1        0.0880
     36 N          60.3147   86.0345    6.8054 N.ar    1  UNL1       -0.2363
     37 C          59.1356   86.8480    7.2503 C.ar    1  UNL1        0.1345
     38 S          59.2511   87.0608    8.7306 S.2     1  UNL1       -0.0645
     39 C          60.5017   86.3788    9.2007 C.ar    1  UNL1        0.0498
     40 C          61.1269   86.2534   10.5584 C.ar    1  UNL1        0.0227
@<TRIPOS>BOND
     1    27    28    1
     2    28    29    1
     3    28    25    1
     4    25     1    1
     5     1     2   ar
     6     2     3   ar
     7     3    30    1
     8    30    32    1
     9    32    33   ar
    10    33    34   ar
    11    34    35   ar
    12    35    36   ar
    13    36    37   ar
    14    37    38   ar
    15    38    39   ar
    16    39    40   ar
    17     3     4   ar
    18     4     5   ar
    19     5     6   ar
    20     6     7    1
    21     7     8    2
    22     7     9   am
    23     9    11    1
    24    11    12    1
    25    12    13    1
    26    13    14   ar
    27    14    15   ar
    28    15    16   ar
    29    16    19    1
    30    19    20    1
    31    19    21    2
    32    19    22    2
    33    16    17   ar
    34    17    18   ar
    35     6     1   ar
    36    18    13   ar
    37    40    32   ar
    38    39    35   ar
    39    25    26    1
    40    30    31    1
    41     9    10    1
    42    20    23    1
    43    20    24    1
@<TRIPOS>MOLECULE
*****
 40 43 0 0 0
SMALL
GASTEIGER

@<TRIPOS>ATOM
      1 C          63.1893   89.3584   12.9442 C.ar    1  UNL1        0.0533
      2 C          62.8394   88.1359   12.1486 C.ar    1  UNL1        0.0488
      3 C          63.2410   86.7782   12.6440 C.ar    1  UNL1        0.1334
      4 N          63.9926   86.6431   13.9351 N.ar    1  UNL1       -0.2288
      5 C          64.3425   87.8657   14.7308 C.ar    1  UNL1        0.1060
      6 C          63.9409   89.2232   14.2353 C.ar    1  UNL1        0.0856
      7 C          64.2908   90.4458   15.0309 C.2     1  UNL1        0.2486
      8 O          63.3430   90.9581   16.0746 O.2     1  UNL1       -0.2700
      9 N          65.5885   91.1560   14.7828 N.am    1  UNL1       -0.3004
     10 H          66.2105   90.8197   14.0978 H       1  UNL1        0.1498
     11 C          65.9383   92.3785   15.5784 C.3     1  UNL1        0.0944
     12 C          66.8852   93.3955   15.0132 C.3     1  UNL1        0.0476
     13 C          66.8255   93.7476   13.5564 C.ar    1  UNL1       -0.0204
     14 C          66.4243   95.1300   13.1346 C.ar    1  UNL1       -0.0028
     15 C          66.3646   95.4821   11.6777 C.ar    1  UNL1        0.0196
     16 C          66.7061   94.4517   10.6425 C.ar    1  UNL1        0.1217
     17 C          67.1073   93.0692   11.0642 C.ar    1  UNL1        0.0196
     18 C          67.1670   92.7172   12.5212 C.ar    1  UNL1       -0.0028
     19 S          66.6465   94.8037    9.1857 S.O2    1  UNL1        0.0572
     20 N          66.5869   95.1556    7.7288 N.3     1  UNL1       -0.2035
     21 O          67.4772   93.5978    8.8604 O.2     1  UNL1       -0.1532
     22 O          65.8158   96.0095    9.5109 O.2     1  UNL1       -0.1532
     23 H          67.1059   94.4622    7.1900 H       1  UNL1        0.1442
     24 H          66.9997   96.0770    7.5844 H       1  UNL1        0.1442
     25 N          62.7876   90.7160   12.4487 N.pl3   1  UNL1       -0.3338
     26 H          62.8800   91.5013   13.0353 H       1  UNL1        0.1468
     27 C          63.1487   91.3233    9.9486 C.3     1  UNL1        0.0212
     28 C          62.2451   90.8772   11.0596 C.3     1  UNL1        0.0691
     29 C          60.7989   90.5923   10.7815 C.3     1  UNL1        0.0212
     30 N          62.8911   85.5556   11.8485 N.pl3   1  UNL1       -0.2979
     31 H          62.7687   85.6210   10.8738 H       1  UNL1        0.1536
     32 C          62.7278   84.2335   12.5380 C.ar    1  UNL1        0.0500
     33 C          62.4391   84.1854   14.0091 C.ar    1  UNL1        0.0162
     34 C          62.2758   82.8633   14.6986 C.ar    1  UNL1        0.0209
     35 C          62.4012   81.5893   13.9169 C.ar    1  UNL1        0.0880
     36 N          62.2912   80.1489   14.3209 N.ar    1  UNL1       -0.2363
     37 C          62.5120   79.3068   13.0994 C.ar    1  UNL1        0.1345
     38 S          62.7585   80.2267   11.9405 S.2     1  UNL1       -0.0645
     39 C          62.6900   81.6374   12.4457 C.ar    1  UNL1        0.0498
     40 C          62.8533   82.9595   11.7563 C.ar    1  UNL1        0.0227
@<TRIPOS>BOND
     1    27    28    1
     2    28    29    1
     3    28    25    1
     4    25     1    1
     5     1     2   ar
     6     2     3   ar
     7     3    30    1
     8    30    32    1
     9    32    33   ar
    10    33    34   ar
    11    34    35   ar
    12    35    36   ar
    13    36    37   ar
    14    37    38   ar
    15    38    39   ar
    16    39    40   ar
    17     3     4   ar
    18     4     5   ar
    19     5     6   ar
    20     6     7    1
    21     7     8    2
    22     7     9   am
    23     9    11    1
    24    11    12    1
    25    12    13    1
    26    13    14   ar
    27    14    15   ar
    28    15    16   ar
    29    16    19    1
    30    19    20    1
    31    19    21    2
    32    19    22    2
    33    16    17   ar
    34    17    18   ar
    35     6     1   ar
    36    18    13   ar
    37    40    32   ar
    38    39    35   ar
    39    25    26    1
    40    30    31    1
    41     9    10    1
    42    20    23    1
    43    20    24    1
@<TRIPOS>MOLECULE
*****
 40 43 0 0 0
SMALL
GASTEIGER

@<TRIPOS>ATOM
      1 C          63.8715   90.4852   13.6251 C.ar    1  UNL1        0.0533
      2 C          64.3855   91.8265   13.1932 C.ar    1  UNL1        0.0488
      3 C          65.6474   92.3743   13.7913 C.ar    1  UNL1        0.1334
      4 N          66.3952   91.5806   14.8213 N.ar    1  UNL1       -0.2288
      5 C          65.8811   90.2392   15.2532 C.ar    1  UNL1        0.1060
      6 C          64.6193   89.6915   14.6551 C.ar    1  UNL1        0.0856
      7 C          64.1052   88.3502   15.0870 C.2     1  UNL1        0.2486
      8 O          62.9500   88.2610   16.0396 O.2     1  UNL1       -0.2700
      9 N          64.7464   87.0981   14.5663 N.am    1  UNL1       -0.3004
     10 H          65.5046   87.1567   13.9411 H       1  UNL1        0.1498
     11 C          64.2323   85.7568   14.9982 C.3     1  UNL1        0.0944
     12 C          62.9335   85.2405   14.4534 C.3     1  UNL1        0.0476
     13 C          62.9036   83.9593   13.6740 C.ar    1  UNL1       -0.0204
     14 C          62.5327   82.6754   14.3553 C.ar    1  UNL1       -0.0028
     15 C          62.5028   81.3941   13.5759 C.ar    1  UNL1        0.0196
     16 C          62.8438   81.3967   12.1152 C.ar    1  UNL1        0.1217
     17 C          63.2148   82.6805   11.4339 C.ar    1  UNL1        0.0196
     18 C          63.2447   83.9618   12.2133 C.ar    1  UNL1       -0.0028
     19 S          62.8140   80.1155   11.3357 S.O2    1  UNL1        0.0572
     20 N          62.7841   78.8343   10.5562 N.3     1  UNL1       -0.2035
     21 O          63.2471   80.8546   10.1044 O.2     1  UNL1       -0.1532
     22 O          62.3808   79.3764   12.5670 O.2     1  UNL1       -0.1532
     23 H          63.0551   79.0178    9.5901 H       1  UNL1        0.1442
     24 H          61.8413   78.4456   10.5769 H       1  UNL1        0.1442
     25 N          62.6096   89.9375   13.0269 N.pl3   1  UNL1       -0.3338
     26 H          61.8111   89.8147   13.5896 H       1  UNL1        0.1468
     27 C          62.1919   88.1849   11.1551 C.3     1  UNL1        0.0212
     28 C          62.5643   89.5770   11.5716 C.3     1  UNL1        0.0691
     29 C          62.8916   90.6084   10.5329 C.3     1  UNL1        0.0212
     30 N          66.1615   93.7156   13.3594 N.pl3   1  UNL1       -0.2979
     31 H          66.3299   94.4172   14.0292 H       1  UNL1        0.1536
     32 C          66.4190   93.9879   11.9069 C.ar    1  UNL1        0.0500
     33 C          66.9914   92.9123   11.0322 C.ar    1  UNL1        0.0162
     34 C          67.2489   93.1846    9.5797 C.ar    1  UNL1        0.0209
     35 C          66.9339   94.5326    9.0021 C.ar    1  UNL1        0.0880
     36 N          67.0793   95.0899    7.6171 N.ar    1  UNL1       -0.2363
     37 C          66.5966   96.5100    7.6359 C.ar    1  UNL1        0.1345
     38 S          66.1530   96.8304    9.0325 S.2     1  UNL1       -0.0645
     39 C          66.3615   95.6083    9.8769 C.ar    1  UNL1        0.0498
     40 C          66.1040   95.3359   11.3293 C.ar    1  UNL1        0.0227
@<TRIPOS>BOND
     1    27    28    1
     2    28    29    1
     3    28    25    1
     4    25     1    1
     5     1     2   ar
     6     2     3   ar
     7     3    30    1
     8    30    32    1
     9    32    33   ar
    10    33    34   ar
    11    34    35   ar
    12    35    36   ar
    13    36    37   ar
    14    37    38   ar
    15    38    39   ar
    16    39    40   ar
    17     3     4   ar
    18     4     5   ar
    19     5     6   ar
    20     6     7    1
    21     7     8    2
    22     7     9   am
    23     9    11    1
    24    11    12    1
    25    12    13    1
    26    13    14   ar
    27    14    15   ar
    28    15    16   ar
    29    16    19    1
    30    19    20    1
    31    19    21    2
    32    19    22    2
    33    16    17   ar
    34    17    18   ar
    35     6     1   ar
    36    18    13   ar
    37    40    32   ar
    38    39    35   ar
    39    25    26    1
    40    30    31    1
    41     9    10    1
    42    20    23    1
    43    20    24    1
@<TRIPOS>MOLECULE
*****
 40 43 0 0 0
SMALL
GASTEIGER

@<TRIPOS>ATOM
      1 C          63.8625   87.8263   13.8205 C.ar    1  UNL1        0.0533
      2 C          63.4352   86.7394   12.8793 C.ar    1  UNL1        0.0488
      3 C          62.8404   87.0910   11.5479 C.ar    1  UNL1        0.1334
      4 N          62.6730   88.5297   11.1577 N.ar    1  UNL1       -0.2288
      5 C          63.1004   89.6167   12.0990 C.ar    1  UNL1        0.1060
      6 C          63.6951   89.2650   13.4303 C.ar    1  UNL1        0.0856
      7 C          64.1225   90.3520   14.3715 C.2     1  UNL1        0.2486
      8 O          63.1395   90.9294   15.3463 O.2     1  UNL1       -0.2700
      9 N          65.5329   90.8614   14.3379 N.am    1  UNL1       -0.3004
     10 H          66.1781   90.4824   13.6981 H       1  UNL1        0.1498
     11 C          65.9603   91.9484   15.2791 C.3     1  UNL1        0.0944
     12 C          66.8778   93.0353   14.8025 C.3     1  UNL1        0.0476
     13 C          66.7871   93.5267   13.3882 C.ar    1  UNL1       -0.0204
     14 C          66.4478   94.9617   13.1130 C.ar    1  UNL1       -0.0028
     15 C          66.3571   95.4531   11.6987 C.ar    1  UNL1        0.0196
     16 C          66.6057   94.5095   10.5595 C.ar    1  UNL1        0.1217
     17 C          66.9449   93.0745   10.8346 C.ar    1  UNL1        0.0196
     18 C          67.0356   92.5831   12.2490 C.ar    1  UNL1       -0.0028
     19 S          66.5150   95.0008    9.1452 S.O2    1  UNL1        0.0572
     20 N          66.4244   95.4920    7.7308 N.3     1  UNL1       -0.2035
     21 O          67.5400   93.9882    8.7278 O.2     1  UNL1       -0.1532
     22 O          65.4900   96.0133    9.5625 O.2     1  UNL1       -0.1532
     23 H          67.0610   94.9542    7.1426 H       1  UNL1        0.1442
     24 H          66.6813   96.4785    7.6964 H       1  UNL1        0.1442
     25 N          64.4573   87.4746   15.1519 N.pl3   1  UNL1       -0.3338
     26 H          65.2876   87.9110   15.4509 H       1  UNL1        0.1468
     27 C          63.9475   84.9952   15.7374 C.3     1  UNL1        0.0212
     28 C          63.7870   86.4580   16.0278 C.3     1  UNL1        0.0691
     29 C          62.9561   86.9043   17.1942 C.3     1  UNL1        0.0212
     30 N          62.4130   86.0041   10.6067 N.pl3   1  UNL1       -0.2979
     31 H          61.9579   86.2331    9.7643 H       1  UNL1        0.1536
     32 C          62.6791   84.5680   10.9491 C.ar    1  UNL1        0.0500
     33 C          63.4759   83.7090   10.0126 C.ar    1  UNL1        0.0162
     34 C          63.7420   82.2730   10.3549 C.ar    1  UNL1        0.0209
     35 C          63.2112   81.6961   11.6338 C.ar    1  UNL1        0.0880
     36 N          63.3122   80.3254   12.2346 N.ar    1  UNL1       -0.2363
     37 C          62.5777   80.3374   13.5425 C.ar    1  UNL1        0.1345
     38 S          62.0229   81.7155   13.7499 S.2     1  UNL1       -0.0645
     39 C          62.4144   82.5553   12.5703 C.ar    1  UNL1        0.0498
     40 C          62.1484   83.9912   12.2279 C.ar    1  UNL1        0.0227
@<TRIPOS>BOND
     1    27    28    1
     2    28    29    1
     3    28    25    1
     4    25     1    1
     5     1     2   ar
     6     2     3   ar
     7     3    30    1
     8    30    32    1
     9    32    33   ar
    10    33    34   ar
    11    34    35   ar
    12    35    36   ar
    13    36    37   ar
    14    37    38   ar
    15    38    39   ar
    16    39    40   ar
    17     3     4   ar
    18     4     5   ar
    19     5     6   ar
    20     6     7    1
    21     7     8    2
    22     7     9   am
    23     9    11    1
    24    11    12    1
    25    12    13    1
    26    13    14   ar
    27    14    15   ar
    28    15    16   ar
    29    16    19    1
    30    19    20    1
    31    19    21    2
    32    19    22    2
    33    16    17   ar
    34    17    18   ar
    35     6     1   ar
    36    18    13   ar
    37    40    32   ar
    38    39    35   ar
    39    25    26    1
    40    30    31    1
    41     9    10    1
    42    20    23    1
    43    20    24    1
