@<TRIPOS>MOLECULE
*****
 26 28 0 0 0
SMALL
GASTEIGER

@<TRIPOS>ATOM
      1 C          61.9367   87.1775   11.0865 C.ar    1  UNL1        0.0218
      2 C          60.4781   87.4393   10.8543 C.ar    1  UNL1        0.0989
      3 N          59.9095   88.8021   11.1175 N.ar    1  UNL1       -0.2426
      4 C          60.7996   89.9032   11.6130 C.ar    1  UNL1        0.0962
      5 C          62.2582   89.6415   11.8452 C.ar    1  UNL1        0.0166
      6 C          62.8268   88.2786   11.5819 C.ar    1  UNL1        0.0006
      7 C          62.7022   84.8523   11.9568 C.ar    1  UNL1        0.1409
      8 C          63.2708   83.4894   11.6935 C.ar    1  UNL1        0.0665
      9 C          63.6425   83.0889   10.2966 C.ar    1  UNL1        0.1432
     10 F          64.2110   81.7260   10.0333 F       1  UNL1       -0.2041
     11 C          63.4456   84.0512    9.1629 C.ar    1  UNL1        0.0298
     12 C          62.8770   85.4141    9.4262 C.ar    1  UNL1        0.0054
     13 C          62.5053   85.8146   10.8232 C.ar    1  UNL1        0.0356
     14 C          62.6734   84.3572   14.5071 C.3     1  UNL1        0.2525
     15 O          62.3305   85.2528   13.3537 O.3     1  UNL1       -0.4714
     16 C          63.1482   90.7425   12.3406 C.3     1  UNL1        0.1182
     17 N          64.0628   91.4536   11.3878 N.am    1  UNL1       -0.2956
     18 C          65.1425   92.3522   11.9141 C.2     1  UNL1        0.2638
     19 O          65.3076   92.5396   13.3931 O.2     1  UNL1       -0.2685
     20 H          63.9544   91.3306   10.4170 H       1  UNL1        0.1501
     21 C          66.0571   93.0633   10.9613 C.ar    1  UNL1        0.1345
     22 C          67.2297   92.3409   10.3670 C.ar    1  UNL1        0.0238
     23 C          68.1443   93.0520    9.4142 C.ar    1  UNL1        0.0033
     24 C          67.8862   94.4855    9.0557 C.ar    1  UNL1        0.0207
     25 C          66.7136   95.2079    9.6499 C.ar    1  UNL1        0.0990
     26 N          65.7990   94.4967   10.6028 N.ar    1  UNL1       -0.2393
@<TRIPOS>BOND
     1    14    15    1
     2    15     7    1
     3     7     8   ar
     4     8     9   ar
     5     9    10    1
     6     9    11   ar
     7    11    12   ar
     8    12    13   ar
     9    13     1    1
    10     1     2   ar
    11     2     3   ar
    12     3     4   ar
    13     4     5   ar
    14     5    16    1
    15    16    17    1
    16    17    18   am
    17    18    19    2
    18    18    21    1
    19    21    22   ar
    20    22    23   ar
    21    23    24   ar
    22    24    25   ar
    23    25    26   ar
    24     5     6   ar
    25    13     7   ar
    26     6     1   ar
    27    26    21   ar
    28    17    20    1
@<TRIPOS>MOLECULE
*****
 26 28 0 0 0
SMALL
GASTEIGER

@<TRIPOS>ATOM
      1 C          64.1109   89.9476   14.4796 C.ar    1  UNL1        0.0218
      2 C          63.4172   90.5632   15.6585 C.ar    1  UNL1        0.0989
      3 N          62.9678   89.6993   16.7994 N.ar    1  UNL1       -0.2426
      4 C          63.2123   88.2198   16.7615 C.ar    1  UNL1        0.0962
      5 C          63.9060   87.6042   15.5826 C.ar    1  UNL1        0.0166
      6 C          64.3553   88.4682   14.4416 C.ar    1  UNL1        0.0006
      7 C          65.8083   91.6337   13.4666 C.ar    1  UNL1        0.1409
      8 C          66.2576   92.4976   12.3256 C.ar    1  UNL1        0.0665
      9 C          65.4588   92.5394   11.0567 C.ar    1  UNL1        0.1432
     10 F          65.9081   93.4033    9.9157 F       1  UNL1       -0.2041
     11 C          64.2107   91.7172   10.9287 C.ar    1  UNL1        0.0298
     12 C          63.7614   90.8534   12.0696 C.ar    1  UNL1        0.0054
     13 C          64.5602   90.8116   13.3386 C.ar    1  UNL1        0.0356
     14 C          66.5224   92.7267   15.7127 C.3     1  UNL1        0.2525
     15 O          66.6071   91.5919   14.7355 O.3     1  UNL1       -0.4714
     16 C          64.1504   86.1248   15.5446 C.3     1  UNL1        0.1182
     17 N          63.9710   85.3677   14.2622 N.am    1  UNL1       -0.2956
     18 C          63.9555   83.8677   14.2727 C.2     1  UNL1        0.2638
     19 O          64.1194   83.1250   15.5655 O.2     1  UNL1       -0.2685
     20 H          63.8634   85.8552   13.4137 H       1  UNL1        0.1501
     21 C          63.7760   83.1106   12.9903 C.ar    1  UNL1        0.1345
     22 C          63.0365   81.8056   12.9870 C.ar    1  UNL1        0.0238
     23 C          62.8571   81.0485   11.7046 C.ar    1  UNL1        0.0033
     24 C          63.4171   81.5964   10.4254 C.ar    1  UNL1        0.0207
     25 C          64.1567   82.9015   10.4287 C.ar    1  UNL1        0.0990
     26 N          64.3361   83.6586   11.7112 N.ar    1  UNL1       -0.2393
@<TRIPOS>BOND
     1    14    15    1
     2    15     7    1
     3     7     8   ar
     4     8     9   ar
     5     9    10    1
     6     9    11   ar
     7    11    12   ar
     8    12    13   ar
     9    13     1    1
    10     1     2   ar
    11     2     3   ar
    12     3     4   ar
    13     4     5   ar
    14     5    16    1
    15    16    17    1
    16    17    18   am
    17    18    19    2
    18    18    21    1
    19    21    22   ar
    20    22    23   ar
    21    23    24   ar
    22    24    25   ar
    23    25    26   ar
    24     5     6   ar
    25    13     7   ar
    26     6     1   ar
    27    26    21   ar
    28    17    20    1
@<TRIPOS>MOLECULE
*****
 26 28 0 0 0
SMALL
GASTEIGER

@<TRIPOS>ATOM
      1 C          62.7626   87.6546   11.9901 C.ar    1  UNL1        0.0218
      2 C          63.2367   86.6233   12.9709 C.ar    1  UNL1        0.0989
      3 N          64.0430   87.0391   14.1654 N.ar    1  UNL1       -0.2426
      4 C          64.3754   88.4862   14.3792 C.ar    1  UNL1        0.0962
      5 C          63.9014   89.5174   13.3984 C.ar    1  UNL1        0.0166
      6 C          63.0950   89.1016   12.2039 C.ar    1  UNL1        0.0006
      7 C          60.5138   87.6363   10.6891 C.ar    1  UNL1        0.1409
      8 C          59.7075   87.2204    9.4946 C.ar    1  UNL1        0.0665
      9 C          60.3436   86.4071    8.4066 C.ar    1  UNL1        0.1432
     10 F          59.5372   85.9912    7.2120 F       1  UNL1       -0.2041
     11 C          61.7860   86.0095    8.5131 C.ar    1  UNL1        0.0298
     12 C          62.5923   86.4253    9.7076 C.ar    1  UNL1        0.0054
     13 C          61.9562   87.2387   10.7956 C.ar    1  UNL1        0.0356
     14 C          59.6182   89.9119   11.5663 C.3     1  UNL1        0.2525
     15 O          59.8777   88.4497   11.7771 O.3     1  UNL1       -0.4714
     16 C          64.2337   90.9644   13.6122 C.3     1  UNL1        0.1182
     17 N          64.7754   91.7847   12.4793 N.am    1  UNL1       -0.2956
     18 C          66.2134   92.2116   12.4829 C.2     1  UNL1        0.2638
     19 O          67.1097   91.8181   13.6195 O.2     1  UNL1       -0.2685
     20 H          64.1871   92.0430   11.7333 H       1  UNL1        0.1501
     21 C          66.7551   93.0320   11.3500 C.ar    1  UNL1        0.1345
     22 C          67.5316   92.3712   10.2498 C.ar    1  UNL1        0.0238
     23 C          68.0733   93.1916    9.1169 C.ar    1  UNL1        0.0033
     24 C          67.8385   94.6728    9.0841 C.ar    1  UNL1        0.0207
     25 C          67.0620   95.3335   10.1843 C.ar    1  UNL1        0.0990
     26 N          66.5203   94.5131   11.3173 N.ar    1  UNL1       -0.2393
@<TRIPOS>BOND
     1    14    15    1
     2    15     7    1
     3     7     8   ar
     4     8     9   ar
     5     9    10    1
     6     9    11   ar
     7    11    12   ar
     8    12    13   ar
     9    13     1    1
    10     1     2   ar
    11     2     3   ar
    12     3     4   ar
    13     4     5   ar
    14     5    16    1
    15    16    17    1
    16    17    18   am
    17    18    19    2
    18    18    21    1
    19    21    22   ar
    20    22    23   ar
    21    23    24   ar
    22    24    25   ar
    23    25    26   ar
    24     5     6   ar
    25    13     7   ar
    26     6     1   ar
    27    26    21   ar
    28    17    20    1
@<TRIPOS>MOLECULE
*****
 26 28 0 0 0
SMALL
GASTEIGER

@<TRIPOS>ATOM
      1 C          61.8928   87.2473   11.0558 C.ar    1  UNL1        0.0218
      2 C          60.4033   87.3396   11.2078 C.ar    1  UNL1        0.0989
      3 N          59.7579   88.6662   11.4789 N.ar    1  UNL1       -0.2426
      4 C          60.6018   89.9006   11.5980 C.ar    1  UNL1        0.0962
      5 C          62.0913   89.8083   11.4460 C.ar    1  UNL1        0.0166
      6 C          62.7367   88.4816   11.1749 C.ar    1  UNL1        0.0006
      7 C          62.9768   85.0527   11.9268 C.ar    1  UNL1        0.1409
      8 C          63.6222   83.7261   11.6556 C.ar    1  UNL1        0.0665
      9 C          63.8291   83.2675   10.2425 C.ar    1  UNL1        0.1432
     10 F          64.4745   81.9408    9.9714 F       1  UNL1       -0.2041
     11 C          63.3905   84.1355    9.1005 C.ar    1  UNL1        0.0298
     12 C          62.7451   85.4621    9.3716 C.ar    1  UNL1        0.0054
     13 C          62.5382   85.9207   10.7848 C.ar    1  UNL1        0.0356
     14 C          63.9124   85.4857   14.3115 C.3     1  UNL1        0.2525
     15 O          62.7700   85.5113   13.3399 O.3     1  UNL1       -0.4714
     16 C          62.9352   91.0426   11.5651 C.3     1  UNL1        0.1182
     17 N          63.8895   91.1907   12.7128 N.am    1  UNL1       -0.2956
     18 C          65.1008   92.0644   12.5731 C.2     1  UNL1        0.2638
     19 O          65.3577   92.7900   11.2856 O.2     1  UNL1       -0.2685
     20 H          63.7209   90.7145   13.5578 H       1  UNL1        0.1501
     21 C          66.0551   92.2126   13.7208 C.ar    1  UNL1        0.1345
     22 C          67.5273   92.0274   13.5008 C.ar    1  UNL1        0.0238
     23 C          68.4816   92.1756   14.6485 C.ar    1  UNL1        0.0033
     24 C          67.9638   92.5088   16.0163 C.ar    1  UNL1        0.0207
     25 C          66.4916   92.6940   16.2363 C.ar    1  UNL1        0.0990
     26 N          65.5373   92.5459   15.0885 N.ar    1  UNL1       -0.2393
@<TRIPOS>BOND
     1    14    15    1
     2    15     7    1
     3     7     8   ar
     4     8     9   ar
     5     9    10    1
     6     9    11   ar
     7    11    12   ar
     8    12    13   ar
     9    13     1    1
    10     1     2   ar
    11     2     3   ar
    12     3     4   ar
    13     4     5   ar
    14     5    16    1
    15    16    17    1
    16    17    18   am
    17    18    19    2
    18    18    21    1
    19    21    22   ar
    20    22    23   ar
    21    23    24   ar
    22    24    25   ar
    23    25    26   ar
    24     5     6   ar
    25    13     7   ar
    26     6     1   ar
    27    26    21   ar
    28    17    20    1
@<TRIPOS>MOLECULE
*****
 26 28 0 0 0
SMALL
GASTEIGER

@<TRIPOS>ATOM
      1 C          64.0220   89.5235   14.6514 C.ar    1  UNL1        0.0218
      2 C          63.2776   90.0292   15.8515 C.ar    1  UNL1        0.0989
      3 N          62.8955   89.0828   16.9507 N.ar    1  UNL1       -0.2426
      4 C          63.2577   87.6307   16.8498 C.ar    1  UNL1        0.0962
      5 C          64.0020   87.1250   15.6497 C.ar    1  UNL1        0.0166
      6 C          64.3842   88.0715   14.5505 C.ar    1  UNL1        0.0006
      7 C          63.5771   90.5416   12.3028 C.ar    1  UNL1        0.1409
      8 C          63.9592   91.4881   11.2037 C.ar    1  UNL1        0.0665
      9 C          65.1684   92.3629   11.3539 C.ar    1  UNL1        0.1432
     10 F          65.5506   93.3094   10.2546 F       1  UNL1       -0.2041
     11 C          65.9955   92.2913   12.6032 C.ar    1  UNL1        0.0298
     12 C          65.6133   91.3448   13.7023 C.ar    1  UNL1        0.0054
     13 C          64.4041   90.4700   13.5521 C.ar    1  UNL1        0.0356
     14 C          62.3968   88.5034   11.2064 C.3     1  UNL1        0.2525
     15 O          62.3679   89.6668   12.1526 O.3     1  UNL1       -0.4714
     16 C          64.3642   85.6729   15.5488 C.3     1  UNL1        0.1182
     17 N          64.2126   84.9512   14.2426 N.am    1  UNL1       -0.2956
     18 C          63.8501   83.4957   14.2276 C.2     1  UNL1        0.2638
     19 O          63.6392   82.7620   15.5188 O.2     1  UNL1       -0.2685
     20 H          64.3511   85.4327   13.3952 H       1  UNL1        0.1501
     21 C          63.6985   82.7739   12.9215 C.ar    1  UNL1        0.1345
     22 C          64.2303   83.3867   11.6599 C.ar    1  UNL1        0.0238
     23 C          64.0787   82.6650   10.3537 C.ar    1  UNL1        0.0033
     24 C          63.3953   81.3304   10.3091 C.ar    1  UNL1        0.0207
     25 C          62.8636   80.7176   11.5708 C.ar    1  UNL1        0.0990
     26 N          63.0152   81.4394   12.8770 N.ar    1  UNL1       -0.2393
@<TRIPOS>BOND
     1    14    15    1
     2    15     7    1
     3     7     8   ar
     4     8     9   ar
     5     9    10    1
     6     9    11   ar
     7    11    12   ar
     8    12    13   ar
     9    13     1    1
    10     1     2   ar
    11     2     3   ar
    12     3     4   ar
    13     4     5   ar
    14     5    16    1
    15    16    17    1
    16    17    18   am
    17    18    19    2
    18    18    21    1
    19    21    22   ar
    20    22    23   ar
    21    23    24   ar
    22    24    25   ar
    23    25    26   ar
    24     5     6   ar
    25    13     7   ar
    26     6     1   ar
    27    26    21   ar
    28    17    20    1
@<TRIPOS>MOLECULE
*****
 26 28 0 0 0
SMALL
GASTEIGER

@<TRIPOS>ATOM
      1 C          62.0029   87.1989   11.2247 C.ar    1  UNL1        0.0218
      2 C          60.5614   87.4767   10.9163 C.ar    1  UNL1        0.0989
      3 N          60.0088   88.8595   11.0966 N.ar    1  UNL1       -0.2426
      4 C          60.8977   89.9646   11.5853 C.ar    1  UNL1        0.0962
      5 C          62.3391   89.6868   11.8937 C.ar    1  UNL1        0.0166
      6 C          62.8917   88.3039   11.7134 C.ar    1  UNL1        0.0006
      7 C          62.7804   85.2723    9.6646 C.ar    1  UNL1        0.1409
      8 C          63.3329   83.8895    9.4843 C.ar    1  UNL1        0.0665
      9 C          63.6606   83.0505   10.6838 C.ar    1  UNL1        0.1432
     10 F          64.2131   81.6677   10.5035 F       1  UNL1       -0.2041
     11 C          63.4356   83.5943   12.0635 C.ar    1  UNL1        0.0298
     12 C          62.8831   84.9771   12.2438 C.ar    1  UNL1        0.0054
     13 C          62.5554   85.8161   11.0443 C.ar    1  UNL1        0.0356
     14 C          61.1938   85.8542    7.6912 C.3     1  UNL1        0.2525
     15 O          62.4527   86.1113    8.4652 O.3     1  UNL1       -0.4714
     16 C          63.2279   90.7918   12.3824 C.3     1  UNL1        0.1182
     17 N          64.1287   91.5101   11.4219 N.am    1  UNL1       -0.2956
     18 C          65.1988   92.4255   11.9387 C.2     1  UNL1        0.2638
     19 O          65.3680   92.6227   13.4160 O.2     1  UNL1       -0.2685
     20 H          64.0177   91.3806   10.4523 H       1  UNL1        0.1501
     21 C          66.0995   93.1438   10.9782 C.ar    1  UNL1        0.1345
     22 C          67.2140   92.4043   10.2990 C.ar    1  UNL1        0.0238
     23 C          68.1147   93.1225    9.3385 C.ar    1  UNL1        0.0033
     24 C          67.9011   94.5804    9.0571 C.ar    1  UNL1        0.0207
     25 C          66.7867   95.3199    9.7362 C.ar    1  UNL1        0.0990
     26 N          65.8859   94.6016   10.6968 N.ar    1  UNL1       -0.2393
@<TRIPOS>BOND
     1    14    15    1
     2    15     7    1
     3     7     8   ar
     4     8     9   ar
     5     9    10    1
     6     9    11   ar
     7    11    12   ar
     8    12    13   ar
     9    13     1    1
    10     1     2   ar
    11     2     3   ar
    12     3     4   ar
    13     4     5   ar
    14     5    16    1
    15    16    17    1
    16    17    18   am
    17    18    19    2
    18    18    21    1
    19    21    22   ar
    20    22    23   ar
    21    23    24   ar
    22    24    25   ar
    23    25    26   ar
    24     5     6   ar
    25    13     7   ar
    26     6     1   ar
    27    26    21   ar
    28    17    20    1
@<TRIPOS>MOLECULE
*****
 26 28 0 0 0
SMALL
GASTEIGER

@<TRIPOS>ATOM
      1 C          62.4372   90.0689   11.1193 C.ar    1  UNL1        0.0218
      2 C          61.0956   90.6889   10.8632 C.ar    1  UNL1        0.0989
      3 N          59.9908   89.8672   10.2681 N.ar    1  UNL1       -0.2426
      4 C          60.2277   88.4253    9.9290 C.ar    1  UNL1        0.0962
      5 C          61.5693   87.8052   10.1851 C.ar    1  UNL1        0.0166
      6 C          62.6740   88.6270   10.7803 C.ar    1  UNL1        0.0006
      7 C          63.8598   90.7741   13.1758 C.ar    1  UNL1        0.1409
      8 C          64.9645   91.5959   13.7709 C.ar    1  UNL1        0.0665
      9 C          65.7514   92.5343   12.9047 C.ar    1  UNL1        0.1432
     10 F          66.8561   93.3561   13.4999 F       1  UNL1       -0.2041
     11 C          65.4335   92.6509   11.4434 C.ar    1  UNL1        0.0298
     12 C          64.3288   91.8291   10.8483 C.ar    1  UNL1        0.0054
     13 C          63.5419   90.8907   11.7145 C.ar    1  UNL1        0.0356
     14 C          63.4965   89.5903   15.4598 C.3     1  UNL1        0.2525
     15 O          63.0729   89.8357   14.0419 O.3     1  UNL1       -0.4714
     16 C          61.8062   86.3634    9.8461 C.3     1  UNL1        0.1182
     17 N          61.7724   85.3236   10.9266 N.am    1  UNL1       -0.2956
     18 C          62.7320   84.1712   10.8888 C.2     1  UNL1        0.2638
     19 O          63.7253   84.0588    9.7705 O.2     1  UNL1       -0.2685
     20 H          61.1204   85.3974   11.6606 H       1  UNL1        0.1501
     21 C          62.6983   83.1314   11.9694 C.ar    1  UNL1        0.1345
     22 C          62.8491   81.6807   11.6192 C.ar    1  UNL1        0.0238
     23 C          62.8154   80.6409   12.6997 C.ar    1  UNL1        0.0033
     24 C          62.6308   81.0517   14.1305 C.ar    1  UNL1        0.0207
     25 C          62.4799   82.5025   14.4807 C.ar    1  UNL1        0.0990
     26 N          62.5137   83.5423   13.4001 N.ar    1  UNL1       -0.2393
@<TRIPOS>BOND
     1    14    15    1
     2    15     7    1
     3     7     8   ar
     4     8     9   ar
     5     9    10    1
     6     9    11   ar
     7    11    12   ar
     8    12    13   ar
     9    13     1    1
    10     1     2   ar
    11     2     3   ar
    12     3     4   ar
    13     4     5   ar
    14     5    16    1
    15    16    17    1
    16    17    18   am
    17    18    19    2
    18    18    21    1
    19    21    22   ar
    20    22    23   ar
    21    23    24   ar
    22    24    25   ar
    23    25    26   ar
    24     5     6   ar
    25    13     7   ar
    26     6     1   ar
    27    26    21   ar
    28    17    20    1
@<TRIPOS>MOLECULE
*****
 26 28 0 0 0
SMALL
GASTEIGER

@<TRIPOS>ATOM
      1 C          61.8218   87.3523   11.0334 C.ar    1  UNL1        0.0218
      2 C          60.3303   87.5027   10.9809 C.ar    1  UNL1        0.0989
      3 N          59.7103   88.8656   11.0709 N.ar    1  UNL1       -0.2426
      4 C          60.5819   90.0781   11.2135 C.ar    1  UNL1        0.0962
      5 C          62.0734   89.9277   11.2660 C.ar    1  UNL1        0.0166
      6 C          62.6934   88.5647   11.1759 C.ar    1  UNL1        0.0006
      7 C          62.6898   85.3653    9.6020 C.ar    1  UNL1        0.1409
      8 C          63.3097   84.0024    9.5120 C.ar    1  UNL1        0.0665
      9 C          63.6816   83.2635   10.7633 C.ar    1  UNL1        0.1432
     10 F          64.3016   81.9005   10.6732 F       1  UNL1       -0.2041
     11 C          63.4336   83.8875   12.1046 C.ar    1  UNL1        0.0298
     12 C          62.8137   85.2504   12.1946 C.ar    1  UNL1        0.0054
     13 C          62.4418   85.9893   10.9433 C.ar    1  UNL1        0.0356
     14 C          60.9745   85.8841    7.7210 C.3     1  UNL1        0.2525
     15 O          62.3179   86.1042    8.3507 O.3     1  UNL1       -0.4714
     16 C          62.9449   91.1401   11.4085 C.3     1  UNL1        0.1182
     17 N          63.8640   91.2687   12.5869 N.am    1  UNL1       -0.2956
     18 C          65.1066   92.1024   12.4815 C.2     1  UNL1        0.2638
     19 O          65.4300   92.8075   11.1976 O.2     1  UNL1       -0.2685
     20 H          63.6517   90.8060   13.4295 H       1  UNL1        0.1501
     21 C          66.0257   92.2311   13.6599 C.ar    1  UNL1        0.1345
     22 C          67.5041   92.0520   13.4810 C.ar    1  UNL1        0.0238
     23 C          68.4232   92.1806   14.6594 C.ar    1  UNL1        0.0033
     24 C          67.8638   92.4883   16.0168 C.ar    1  UNL1        0.0207
     25 C          66.3853   92.6674   16.1957 C.ar    1  UNL1        0.0990
     26 N          65.4662   92.5387   15.0172 N.ar    1  UNL1       -0.2393
@<TRIPOS>BOND
     1    14    15    1
     2    15     7    1
     3     7     8   ar
     4     8     9   ar
     5     9    10    1
     6     9    11   ar
     7    11    12   ar
     8    12    13   ar
     9    13     1    1
    10     1     2   ar
    11     2     3   ar
    12     3     4   ar
    13     4     5   ar
    14     5    16    1
    15    16    17    1
    16    17    18   am
    17    18    19    2
    18    18    21    1
    19    21    22   ar
    20    22    23   ar
    21    23    24   ar
    22    24    25   ar
    23    25    26   ar
    24     5     6   ar
    25    13     7   ar
    26     6     1   ar
    27    26    21   ar
    28    17    20    1
@<TRIPOS>MOLECULE
*****
 26 28 0 0 0
SMALL
GASTEIGER

@<TRIPOS>ATOM
      1 C          62.6791   89.9295   11.9551 C.ar    1  UNL1        0.0218
      2 C          61.5975   90.7500   11.3172 C.ar    1  UNL1        0.0989
      3 N          60.7090   90.1393   10.2744 N.ar    1  UNL1       -0.2426
      4 C          60.9020   88.7079    9.8695 C.ar    1  UNL1        0.0962
      5 C          61.9836   87.8873   10.5073 C.ar    1  UNL1        0.0166
      6 C          62.8721   88.4982   11.5502 C.ar    1  UNL1        0.0006
      7 C          64.6540   91.4922   12.5935 C.ar    1  UNL1        0.1409
      8 C          65.5425   92.1030   13.6363 C.ar    1  UNL1        0.0665
      9 C          65.3445   91.7619   15.0835 C.ar    1  UNL1        0.1432
     10 F          66.2331   92.3728   16.1264 F       1  UNL1       -0.2041
     11 C          64.2582   90.8100   15.4880 C.ar    1  UNL1        0.0298
     12 C          63.3697   90.1992   14.4451 C.ar    1  UNL1        0.0054
     13 C          63.5676   90.5403   12.9979 C.ar    1  UNL1        0.0356
     14 C          65.6615   93.0365   10.7632 C.3     1  UNL1        0.2525
     15 O          64.8519   91.8333   11.1463 O.3     1  UNL1       -0.4714
     16 C          62.1766   86.4560   10.1024 C.3     1  UNL1        0.1182
     17 N          62.0708   85.3659   11.1273 N.am    1  UNL1       -0.2956
     18 C          62.8323   84.0867   10.9431 C.2     1  UNL1        0.2638
     19 O          63.6996   83.8977    9.7340 O.2     1  UNL1       -0.2685
     20 H          61.5015   85.4899   11.9209 H       1  UNL1        0.1501
     21 C          62.7264   82.9966   11.9680 C.ar    1  UNL1        0.1345
     22 C          62.8534   81.5610   11.5519 C.ar    1  UNL1        0.0238
     23 C          62.7475   80.4709   12.5767 C.ar    1  UNL1        0.0033
     24 C          62.5146   80.8163   14.0178 C.ar    1  UNL1        0.0207
     25 C          62.3877   82.2518   14.4339 C.ar    1  UNL1        0.0990
     26 N          62.4936   83.3420   13.4089 N.ar    1  UNL1       -0.2393
@<TRIPOS>BOND
     1    14    15    1
     2    15     7    1
     3     7     8   ar
     4     8     9   ar
     5     9    10    1
     6     9    11   ar
     7    11    12   ar
     8    12    13   ar
     9    13     1    1
    10     1     2   ar
    11     2     3   ar
    12     3     4   ar
    13     4     5   ar
    14     5    16    1
    15    16    17    1
    16    17    18   am
    17    18    19    2
    18    18    21    1
    19    21    22   ar
    20    22    23   ar
    21    23    24   ar
    22    24    25   ar
    23    25    26   ar
    24     5     6   ar
    25    13     7   ar
    26     6     1   ar
    27    26    21   ar
    28    17    20    1
