@<TRIPOS>MOLECULE
*****
 20 21 0 0 0
SMALL
GASTEIGER

@<TRIPOS>ATOM
      1 C          62.0836   87.1528   11.0200 C.2     1  UNL1        0.0436
      2 C          61.6056   85.7316   10.9793 C.2     1  UNL1        0.0044
      3 C          62.5731   84.6081   11.2066 C.ar    1  UNL1        0.0168
      4 C          62.6818   83.9744   12.5618 C.ar    1  UNL1        0.0761
      5 C          63.6493   82.8509   12.7890 C.ar    1  UNL1        0.2901
      6 C          64.5082   82.3611   11.6610 C.ar    1  UNL1        0.0761
      7 C          64.3996   82.9948   10.3058 C.ar    1  UNL1        0.0177
      8 C          63.4320   84.1183   10.0786 C.ar    1  UNL1        0.0580
      9 CL         63.3234   84.7520    8.7233 Cl      1  UNL1       -0.0822
     10 N          63.7580   82.2172   14.1443 N.pl3   1  UNL1        0.0809
     11 O          63.9543   83.0744   15.3595 O.2     1  UNL1        0.0415
     12 O          63.6703   80.7263   14.2843 O.co2   1  UNL1       -0.5760
     13 O          60.8540   89.2725   11.8831 O.2     1  UNL1       -0.2850
     14 C          61.1160   88.2763   10.7927 C.2     1  UNL1        0.2111
     15 C          60.4105   88.4035    9.4752 C.ar    1  UNL1        0.0961
     16 C          59.6564   87.3153    8.7701 C.ar    1  UNL1        0.0218
     17 C          59.1150   87.8805    7.4905 C.ar    1  UNL1        0.0200
     18 C          59.5345   89.3182    7.4047 C.ar    1  UNL1        0.0725
     19 N          60.3351   89.6414    8.6313 N.ar    1  UNL1       -0.3495
     20 H          60.7400   90.5129    8.8450 H       1  UNL1        0.1661
@<TRIPOS>UNITY_ATOM_ATTR
10 1
charge 1
12 1
charge -1
@<TRIPOS>BOND
     1    13    14    2
     2    14     1    1
     3     1     2    2
     4     2     3    1
     5     3     4   ar
     6     4     5   ar
     7     5    10    1
     8    10    11    2
     9    10    12    1
    10     5     6   ar
    11     6     7   ar
    12     7     8   ar
    13     8     9    1
    14    14    15    1
    15    15    16   ar
    16    16    17   ar
    17    17    18   ar
    18    18    19   ar
    19     8     3   ar
    20    19    15   ar
    21    19    20    1
@<TRIPOS>MOLECULE
*****
 20 21 0 0 0
SMALL
GASTEIGER

@<TRIPOS>ATOM
      1 C          63.0143   84.6205   10.5075 C.2     1  UNL1        0.0436
      2 C          62.4871   85.7250   11.3746 C.2     1  UNL1        0.0044
      3 C          61.9099   86.9598   10.7482 C.ar    1  UNL1        0.0168
      4 C          60.9139   86.8397    9.6331 C.ar    1  UNL1        0.0761
      5 C          60.3368   88.0744    9.0068 C.ar    1  UNL1        0.2901
      6 C          60.7557   89.4292    9.4955 C.ar    1  UNL1        0.0761
      7 C          61.7518   89.5494   10.6105 C.ar    1  UNL1        0.0177
      8 C          62.3289   88.3147   11.2369 C.ar    1  UNL1        0.0580
      9 CL         63.3250   88.4348   12.3520 Cl      1  UNL1       -0.0822
     10 N          59.3406   87.9543    7.8917 N.pl3   1  UNL1        0.0809
     11 O          58.4559   86.7462    7.8032 O.2     1  UNL1        0.0415
     12 O          59.2293   89.0423    6.8651 O.co2   1  UNL1       -0.5760
     13 O          64.7791   82.7137   10.5110 O.2     1  UNL1       -0.2850
     14 C          63.5915   83.3857   11.1339 C.2     1  UNL1        0.2111
     15 C          62.9811   82.8230   12.3831 C.ar    1  UNL1        0.0961
     16 C          62.2651   81.5101   12.5005 C.ar    1  UNL1        0.0218
     17 C          61.8210   81.3500   13.9243 C.ar    1  UNL1        0.0200
     18 C          62.2624   82.5640   14.6868 C.ar    1  UNL1        0.0725
     19 N          62.9794   83.4743   13.7343 N.ar    1  UNL1       -0.3495
     20 H          63.3787   84.3462   13.9569 H       1  UNL1        0.1661
@<TRIPOS>UNITY_ATOM_ATTR
10 1
charge 1
12 1
charge -1
@<TRIPOS>BOND
     1    13    14    2
     2    14     1    1
     3     1     2    2
     4     2     3    1
     5     3     4   ar
     6     4     5   ar
     7     5    10    1
     8    10    11    2
     9    10    12    1
    10     5     6   ar
    11     6     7   ar
    12     7     8   ar
    13     8     9    1
    14    14    15    1
    15    15    16   ar
    16    16    17   ar
    17    17    18   ar
    18    18    19   ar
    19     8     3   ar
    20    19    15   ar
    21    19    20    1
@<TRIPOS>MOLECULE
*****
 20 21 0 0 0
SMALL
GASTEIGER

@<TRIPOS>ATOM
      1 C          60.8720   86.1062    9.5936 C.2     1  UNL1        0.0436
      2 C          61.9757   86.1563   10.6080 C.2     1  UNL1        0.0044
      3 C          62.7252   84.9064   10.9632 C.ar    1  UNL1        0.0168
      4 C          62.7471   84.4229   12.3830 C.ar    1  UNL1        0.0761
      5 C          63.4965   83.1731   12.7381 C.ar    1  UNL1        0.2901
      6 C          64.2241   82.4067   11.6736 C.ar    1  UNL1        0.0761
      7 C          64.2023   82.8902   10.2538 C.ar    1  UNL1        0.0177
      8 C          63.4528   84.1400    9.8987 C.ar    1  UNL1        0.0580
      9 CL         63.4309   84.6236    8.4788 Cl      1  UNL1       -0.0822
     10 N          63.5184   82.6895   14.1580 N.pl3   1  UNL1        0.0809
     11 O          64.2815   83.4538   15.1989 O.2     1  UNL1        0.0415
     12 O          62.7772   81.4417   14.5368 O.co2   1  UNL1       -0.5760
     13 O          59.5555   87.5244    7.8598 O.2     1  UNL1       -0.2850
     14 C          60.1225   87.3561    9.2383 C.2     1  UNL1        0.2111
     15 C          59.9400   88.4376   10.2615 C.ar    1  UNL1        0.0961
     16 C          60.1501   89.9061   10.0393 C.ar    1  UNL1        0.0218
     17 C          59.8553   90.6166   11.3271 C.ar    1  UNL1        0.0200
     18 C          59.4630   89.5872   12.3452 C.ar    1  UNL1        0.0725
     19 N          59.5154   88.2405   11.6866 N.ar    1  UNL1       -0.3495
     20 H          59.3075   87.3786   12.1146 H       1  UNL1        0.1661
@<TRIPOS>UNITY_ATOM_ATTR
10 1
charge 1
12 1
charge -1
@<TRIPOS>BOND
     1    13    14    2
     2    14     1    1
     3     1     2    2
     4     2     3    1
     5     3     4   ar
     6     4     5   ar
     7     5    10    1
     8    10    11    2
     9    10    12    1
    10     5     6   ar
    11     6     7   ar
    12     7     8   ar
    13     8     9    1
    14    14    15    1
    15    15    16   ar
    16    16    17   ar
    17    17    18   ar
    18    18    19   ar
    19     8     3   ar
    20    19    15   ar
    21    19    20    1
@<TRIPOS>MOLECULE
*****
 20 21 0 0 0
SMALL
GASTEIGER

@<TRIPOS>ATOM
      1 C          62.7623   84.4689   11.8569 C.2     1  UNL1        0.0436
      2 C          62.6698   85.9506   12.0715 C.2     1  UNL1        0.0044
      3 C          62.0192   86.8192   11.0359 C.ar    1  UNL1        0.0168
      4 C          61.1392   86.2056    9.9876 C.ar    1  UNL1        0.0761
      5 C          60.4887   87.0742    8.9521 C.ar    1  UNL1        0.2901
      6 C          60.7181   88.5565    8.9650 C.ar    1  UNL1        0.0761
      7 C          61.5980   89.1702   10.0134 C.ar    1  UNL1        0.0177
      8 C          62.2485   88.3015   11.0488 C.ar    1  UNL1        0.0580
      9 CL         63.1285   88.9152   12.0973 Cl      1  UNL1       -0.0822
     10 N          59.6087   86.4605    7.9037 N.pl3   1  UNL1        0.0809
     11 O          58.2044   86.9546    7.7201 O.2     1  UNL1        0.0415
     12 O          60.1331   85.3528    7.0389 O.co2   1  UNL1       -0.5760
     13 O          64.6582   84.0659   13.5871 O.2     1  UNL1       -0.2850
     14 C          63.4129   83.6003   12.8924 C.2     1  UNL1        0.2111
     15 C          62.8182   82.2661   13.2333 C.ar    1  UNL1        0.0961
     16 C          63.0334   80.9867   12.4805 C.ar    1  UNL1        0.0218
     17 C          62.2522   79.9069   13.1687 C.ar    1  UNL1        0.0200
     18 C          61.5541   80.5190   14.3469 C.ar    1  UNL1        0.0725
     19 N          61.9039   81.9770   14.3868 N.ar    1  UNL1       -0.3495
     20 H          61.5888   82.6297   15.0531 H       1  UNL1        0.1661
@<TRIPOS>UNITY_ATOM_ATTR
10 1
charge 1
12 1
charge -1
@<TRIPOS>BOND
     1    13    14    2
     2    14     1    1
     3     1     2    2
     4     2     3    1
     5     3     4   ar
     6     4     5   ar
     7     5    10    1
     8    10    11    2
     9    10    12    1
    10     5     6   ar
    11     6     7   ar
    12     7     8   ar
    13     8     9    1
    14    14    15    1
    15    15    16   ar
    16    16    17   ar
    17    17    18   ar
    18    18    19   ar
    19     8     3   ar
    20    19    15   ar
    21    19    20    1
@<TRIPOS>MOLECULE
*****
 20 21 0 0 0
SMALL
GASTEIGER

@<TRIPOS>ATOM
      1 C          62.8868   85.1442   12.6390 C.2     1  UNL1        0.0436
      2 C          62.4602   85.0173   11.2066 C.2     1  UNL1        0.0044
      3 C          61.7225   86.1414   10.5413 C.ar    1  UNL1        0.0168
      4 C          61.0046   87.1630   11.3724 C.ar    1  UNL1        0.0761
      5 C          60.2671   88.2870   10.7072 C.ar    1  UNL1        0.2901
      6 C          60.2474   88.3893    9.2108 C.ar    1  UNL1        0.0761
      7 C          60.9653   87.3676    8.3797 C.ar    1  UNL1        0.0177
      8 C          61.7029   86.2437    9.0450 C.ar    1  UNL1        0.0580
      9 CL         62.4209   85.2219    8.2139 Cl      1  UNL1       -0.0822
     10 N          59.5491   89.3087   11.5383 N.pl3   1  UNL1        0.0809
     11 O          59.4143   90.7181   11.0428 O.2     1  UNL1        0.0415
     12 O          58.9660   88.9210   12.8648 O.co2   1  UNL1       -0.5760
     13 O          65.0025   84.2474   13.8513 O.2     1  UNL1       -0.2850
     14 C          63.6244   84.0201   13.3043 C.2     1  UNL1        0.2111
     15 C          62.9839   82.6689   13.4225 C.ar    1  UNL1        0.0961
     16 C          63.2439   81.4892   12.5334 C.ar    1  UNL1        0.0218
     17 C          62.3917   80.3514   13.0120 C.ar    1  UNL1        0.0200
     18 C          61.6050   80.8279   14.1970 C.ar    1  UNL1        0.0725
     19 N          61.9710   82.2602   14.4507 N.ar    1  UNL1       -0.3495
     20 H          61.6099   82.8318   15.1663 H       1  UNL1        0.1661
@<TRIPOS>UNITY_ATOM_ATTR
10 1
charge 1
12 1
charge -1
@<TRIPOS>BOND
     1    13    14    2
     2    14     1    1
     3     1     2    2
     4     2     3    1
     5     3     4   ar
     6     4     5   ar
     7     5    10    1
     8    10    11    2
     9    10    12    1
    10     5     6   ar
    11     6     7   ar
    12     7     8   ar
    13     8     9    1
    14    14    15    1
    15    15    16   ar
    16    16    17   ar
    17    17    18   ar
    18    18    19   ar
    19     8     3   ar
    20    19    15   ar
    21    19    20    1
@<TRIPOS>MOLECULE
*****
 20 21 0 0 0
SMALL
GASTEIGER

@<TRIPOS>ATOM
      1 C          61.5382   85.6448   10.8101 C.2     1  UNL1        0.0436
      2 C          62.4880   86.0991   11.8784 C.2     1  UNL1        0.0044
      3 C          63.1080   85.0970   12.8065 C.ar    1  UNL1        0.0168
      4 C          62.8812   83.6306   12.5868 C.ar    1  UNL1        0.0761
      5 C          63.5011   82.6285   13.5149 C.ar    1  UNL1        0.2901
      6 C          64.3478   83.0928   14.6628 C.ar    1  UNL1        0.0761
      7 C          64.5746   84.5591   14.8825 C.ar    1  UNL1        0.0177
      8 C          63.9547   85.5612   13.9544 C.ar    1  UNL1        0.0580
      9 CL         64.1815   87.0277   14.1741 Cl      1  UNL1       -0.0822
     10 N          63.2743   81.1621   13.2952 N.pl3   1  UNL1        0.0809
     11 O          63.5166   80.1901   14.4117 O.2     1  UNL1        0.0415
     12 O          62.8052   80.6676   11.9590 O.co2   1  UNL1       -0.5760
     13 O          60.7561   86.3215    8.4267 O.2     1  UNL1       -0.2850
     14 C          60.9182   86.6470    9.8819 C.2     1  UNL1        0.2111
     15 C          60.4605   87.9746   10.4091 C.ar    1  UNL1        0.0961
     16 C          60.6642   89.3043    9.7456 C.ar    1  UNL1        0.0218
     17 C          60.0483   90.3572   10.6187 C.ar    1  UNL1        0.0200
     18 C          59.4640   89.6780   11.8218 C.ar    1  UNL1        0.0725
     19 N          59.7187   88.2055   11.6922 N.ar    1  UNL1       -0.3495
     20 H          59.4468   87.5124   12.3363 H       1  UNL1        0.1661
@<TRIPOS>UNITY_ATOM_ATTR
10 1
charge 1
12 1
charge -1
@<TRIPOS>BOND
     1    13    14    2
     2    14     1    1
     3     1     2    2
     4     2     3    1
     5     3     4   ar
     6     4     5   ar
     7     5    10    1
     8    10    11    2
     9    10    12    1
    10     5     6   ar
    11     6     7   ar
    12     7     8   ar
    13     8     9    1
    14    14    15    1
    15    15    16   ar
    16    16    17   ar
    17    17    18   ar
    18    18    19   ar
    19     8     3   ar
    20    19    15   ar
    21    19    20    1
@<TRIPOS>MOLECULE
*****
 20 21 0 0 0
SMALL
GASTEIGER

@<TRIPOS>ATOM
      1 C          63.1095   84.6286   11.3308 C.2     1  UNL1        0.0436
      2 C          62.4088   85.1669   10.1187 C.2     1  UNL1        0.0044
      3 C          61.9364   86.5905   10.0958 C.ar    1  UNL1        0.0168
      4 C          62.4656   87.5725   11.0986 C.ar    1  UNL1        0.0761
      5 C          61.9932   88.9959   11.0757 C.ar    1  UNL1        0.2901
      6 C          60.9915   89.4373   10.0501 C.ar    1  UNL1        0.0761
      7 C          60.4623   88.4553    9.0473 C.ar    1  UNL1        0.0177
      8 C          60.9348   87.0319    9.0702 C.ar    1  UNL1        0.0580
      9 CL         60.4056   86.0497    8.0675 Cl      1  UNL1       -0.0822
     10 N          62.5224   89.9780   12.0785 N.pl3   1  UNL1        0.0809
     11 O          62.3372   89.7255   13.5454 O.2     1  UNL1        0.0415
     12 O          63.2367   91.2126   11.6142 O.co2   1  UNL1       -0.5760
     13 O          64.6727   82.7618   10.4242 O.2     1  UNL1       -0.2850
     14 C          63.5819   83.2051   11.3536 C.2     1  UNL1        0.2111
     15 C          62.9637   82.2248   12.3059 C.ar    1  UNL1        0.0961
     16 C          62.2994   82.5600   13.6083 C.ar    1  UNL1        0.0218
     17 C          61.8263   81.2797   14.2303 C.ar    1  UNL1        0.0200
     18 C          62.1981   80.1532   13.3123 C.ar    1  UNL1        0.0725
     19 N          62.9011   80.7374   12.1229 N.ar    1  UNL1       -0.3495
     20 H          63.2586   80.2330   11.3567 H       1  UNL1        0.1661
@<TRIPOS>UNITY_ATOM_ATTR
10 1
charge 1
12 1
charge -1
@<TRIPOS>BOND
     1    13    14    2
     2    14     1    1
     3     1     2    2
     4     2     3    1
     5     3     4   ar
     6     4     5   ar
     7     5    10    1
     8    10    11    2
     9    10    12    1
    10     5     6   ar
    11     6     7   ar
    12     7     8   ar
    13     8     9    1
    14    14    15    1
    15    15    16   ar
    16    16    17   ar
    17    17    18   ar
    18    18    19   ar
    19     8     3   ar
    20    19    15   ar
    21    19    20    1
@<TRIPOS>MOLECULE
*****
 20 21 0 0 0
SMALL
GASTEIGER

@<TRIPOS>ATOM
      1 C          62.2928   90.4802   10.7429 C.2     1  UNL1        0.0436
      2 C          62.7562   90.2500   12.1508 C.2     1  UNL1        0.0044
      3 C          64.0171   90.8983   12.6408 C.ar    1  UNL1        0.0168
      4 C          64.6396   92.0154   11.8569 C.ar    1  UNL1        0.0761
      5 C          65.9004   92.6636   12.3470 C.ar    1  UNL1        0.2901
      6 C          66.5387   92.1947   13.6209 C.ar    1  UNL1        0.0761
      7 C          65.9161   91.0776   14.4047 C.ar    1  UNL1        0.0177
      8 C          64.6553   90.4294   13.9147 C.ar    1  UNL1        0.0580
      9 CL         64.0327   89.3123   14.6985 Cl      1  UNL1       -0.0822
     10 N          66.5231   93.7808   11.5631 N.pl3   1  UNL1        0.0809
     11 O          67.5018   93.4743   10.4685 O.2     1  UNL1        0.0415
     12 O          66.1669   95.2043   11.8739 O.co2   1  UNL1       -0.5760
     13 O          59.7244   90.5593   10.3591 O.2     1  UNL1       -0.2850
     14 C          61.0319   89.8320   10.2528 C.2     1  UNL1        0.2111
     15 C          61.0786   88.4564    9.6566 C.ar    1  UNL1        0.0961
     16 C          62.2449   87.5144    9.7033 C.ar    1  UNL1        0.0218
     17 C          61.8544   86.2571    8.9845 C.ar    1  UNL1        0.0200
     18 C          60.4466   86.4221    8.4934 C.ar    1  UNL1        0.0725
     19 N          59.9672   87.7814    8.9088 N.ar    1  UNL1       -0.3495
     20 H          59.0790   88.1634    8.7233 H       1  UNL1        0.1661
@<TRIPOS>UNITY_ATOM_ATTR
10 1
charge 1
12 1
charge -1
@<TRIPOS>BOND
     1    13    14    2
     2    14     1    1
     3     1     2    2
     4     2     3    1
     5     3     4   ar
     6     4     5   ar
     7     5    10    1
     8    10    11    2
     9    10    12    1
    10     5     6   ar
    11     6     7   ar
    12     7     8   ar
    13     8     9    1
    14    14    15    1
    15    15    16   ar
    16    16    17   ar
    17    17    18   ar
    18    18    19   ar
    19     8     3   ar
    20    19    15   ar
    21    19    20    1
@<TRIPOS>MOLECULE
*****
 20 21 0 0 0
SMALL
GASTEIGER

@<TRIPOS>ATOM
      1 C          64.5364   87.8627   14.6295 C.2     1  UNL1        0.0436
      2 C          64.0111   89.2582   14.7917 C.2     1  UNL1        0.0044
      3 C          64.6956   90.4020   14.1038 C.ar    1  UNL1        0.0168
      4 C          65.9224   91.0162   14.7103 C.ar    1  UNL1        0.0761
      5 C          66.6068   92.1599   14.0223 C.ar    1  UNL1        0.2901
      6 C          66.0646   92.6895   12.7279 C.ar    1  UNL1        0.0761
      7 C          64.8378   92.0754   12.1215 C.ar    1  UNL1        0.0177
      8 C          64.1533   90.9316   12.8094 C.ar    1  UNL1        0.0580
      9 CL         62.9265   90.3174   12.2030 Cl      1  UNL1       -0.0822
     10 N          67.8337   92.7741   14.6288 N.pl3   1  UNL1        0.0809
     11 O          67.7092   93.6815   15.8166 O.2     1  UNL1        0.0415
     12 O          69.1849   92.4809   14.0473 O.co2   1  UNL1       -0.5760
     13 O          63.1802   86.9336   16.6414 O.2     1  UNL1       -0.2850
     14 C          63.8519   86.7189   15.3175 C.2     1  UNL1        0.2111
     15 C          63.8391   85.3604   14.6815 C.ar    1  UNL1        0.0961
     16 C          63.4477   85.0531   13.2664 C.ar    1  UNL1        0.0218
     17 C          63.5821   83.5736   13.0593 C.ar    1  UNL1        0.0200
     18 C          64.0565   82.9665   14.3464 C.ar    1  UNL1        0.0725
     19 N          64.2153   84.0709   15.3489 N.ar    1  UNL1       -0.3495
     20 H          64.5140   83.9675   16.2813 H       1  UNL1        0.1661
@<TRIPOS>UNITY_ATOM_ATTR
10 1
charge 1
12 1
charge -1
@<TRIPOS>BOND
     1    13    14    2
     2    14     1    1
     3     1     2    2
     4     2     3    1
     5     3     4   ar
     6     4     5   ar
     7     5    10    1
     8    10    11    2
     9    10    12    1
    10     5     6   ar
    11     6     7   ar
    12     7     8   ar
    13     8     9    1
    14    14    15    1
    15    15    16   ar
    16    16    17   ar
    17    17    18   ar
    18    18    19   ar
    19     8     3   ar
    20    19    15   ar
    21    19    20    1
