@<TRIPOS>MOLECULE
*****
 35 39 0 0 0
SMALL
GASTEIGER

@<TRIPOS>ATOM
      1 N          63.0075   90.7038   12.3178 N.3     1  UNL1       -0.2679
      2 C          64.2378   91.5363   12.1101 C.3     1  UNL1        0.0978
      3 C          64.6665   91.9075   10.7214 C.3     1  UNL1        0.0224
      4 C          65.8969   92.7401   10.5136 C.3     1  UNL1        0.0065
      5 C          66.6985   93.2014   11.6945 C.3     1  UNL1        0.0277
      6 C          66.2698   92.8301   13.0832 C.ar    1  UNL1       -0.0073
      7 C          67.0715   93.2914   14.2641 C.ar    1  UNL1       -0.0015
      8 C          66.6428   92.9202   15.6528 C.ar    1  UNL1        0.0203
      9 C          65.4125   92.0877   15.8606 C.ar    1  UNL1        0.0985
     10 N          64.6108   91.6264   14.6797 N.ar    1  UNL1       -0.2471
     11 C          65.0395   91.9977   13.2910 C.ar    1  UNL1        0.0695
     12 C          61.8189   90.8851   11.4209 C.3     1  UNL1        0.0886
     13 C          61.1256   85.3294    7.4331 C.ar    1  UNL1       -0.0003
     14 C          62.4172   85.2326    8.1896 C.ar    1  UNL1       -0.0003
     15 C          62.8142   86.3244    9.1385 C.ar    1  UNL1       -0.0045
     16 C          61.9196   87.5130    9.3308 C.ar    1  UNL1       -0.0234
     17 C          60.6280   87.6097    8.5742 C.ar    1  UNL1       -0.0103
     18 C          60.2310   86.5179    7.6254 C.ar    1  UNL1       -0.0032
     19 C          59.7333   88.7983    8.7665 C.3     1  UNL1        0.0953
     20 N          60.1303   89.8901    9.7154 N.3     1  UNL1       -0.2934
     21 C          61.4219   89.7933   10.4720 C.3     1  UNL1        0.0748
     22 C          62.3165   88.6048   10.2797 C.3     1  UNL1        0.0432
     23 H          59.3868   89.9613   10.4100 H       1  UNL1        0.1236
     24 C          62.9656   89.6900   13.4226 C.3     1  UNL1        0.0725
     25 C          63.8944   88.5125   13.3955 C.3     1  UNL1        0.0188
     26 C          64.3665   87.8999   14.6807 C.3     1  UNL1        0.0185
     27 C          64.4643   86.4085   14.8093 C.3     1  UNL1        0.0686
     28 N          63.2227   85.5895   15.0033 N.3     1  UNL1       -0.2985
     29 H          62.4310   86.2133   14.8467 H       1  UNL1        0.1232
     30 C          62.9880   84.3718   14.1595 C.3     1  UNL1        0.0557
     31 C          63.0321   84.4759   12.6638 C.3     1  UNL1        0.0274
     32 C          62.7973   83.2582   11.8200 C.3     1  UNL1        0.0589
     33 S          62.5186   81.9363   12.4719 S.3     1  UNL1       -0.1402
     34 C          62.4745   81.8322   13.9677 C.3     1  UNL1        0.0589
     35 C          62.7092   83.0500   14.8115 C.3     1  UNL1        0.0274
@<TRIPOS>BOND
     1    13    14   ar
     2    14    15   ar
     3    15    16   ar
     4    16    17   ar
     5    17    18   ar
     6    17    19    1
     7    19    20    1
     8    20    21    1
     9    21    12    1
    10    12     1    1
    11     1    24    1
    12    24    25    1
    13    25    26    1
    14    26    27    1
    15    27    28    1
    16    28    30    1
    17    30    31    1
    18    31    32    1
    19    32    33    1
    20    33    34    1
    21    34    35    1
    22     2     1    1
    23     2     3    1
    24     3     4    1
    25     4     5    1
    26     5     6    1
    27     6     7   ar
    28     7     8   ar
    29     8     9   ar
    30     9    10   ar
    31    10    11   ar
    32    21    22    1
    33    18    13   ar
    34    35    30    1
    35    11     2    1
    36    22    16    1
    37    11     6   ar
    38    20    23    1
    39    28    29    1
@<TRIPOS>MOLECULE
*****
 35 39 0 0 0
SMALL
GASTEIGER

@<TRIPOS>ATOM
      1 N          63.7329   89.9801   13.5128 N.3     1  UNL1       -0.2679
      2 C          64.6671   91.1093   13.8326 C.3     1  UNL1        0.0978
      3 C          65.1557   91.3034   15.2374 C.3     1  UNL1        0.0224
      4 C          66.0899   92.4327   15.5573 C.3     1  UNL1        0.0065
      5 C          66.5354   93.3677   14.4723 C.3     1  UNL1        0.0277
      6 C          66.0468   93.1735   13.0674 C.ar    1  UNL1       -0.0073
      7 C          66.4923   94.1085   11.9825 C.ar    1  UNL1       -0.0015
      8 C          66.0036   93.9144   10.5776 C.ar    1  UNL1        0.0203
      9 C          65.0695   92.7852   10.2578 C.ar    1  UNL1        0.0985
     10 N          64.6240   91.8502   11.3428 N.ar    1  UNL1       -0.2471
     11 C          65.1126   92.0444   12.7476 C.ar    1  UNL1        0.0695
     12 C          62.3206   90.2696   13.0983 C.3     1  UNL1        0.0886
     13 C          60.6123   86.3546    7.7127 C.ar    1  UNL1       -0.0003
     14 C          61.7691   85.7247    8.4304 C.ar    1  UNL1       -0.0003
     15 C          62.3421   86.3817    9.6510 C.ar    1  UNL1       -0.0045
     16 C          61.7584   87.6686   10.1540 C.ar    1  UNL1       -0.0234
     17 C          60.6016   88.2985    9.4364 C.ar    1  UNL1       -0.0103
     18 C          60.0286   87.6415    8.2157 C.ar    1  UNL1       -0.0032
     19 C          60.0178   89.5855    9.9393 C.3     1  UNL1        0.0953
     20 N          60.5908   90.2425   11.1600 N.3     1  UNL1       -0.2934
     21 C          61.7476   89.6126   11.8777 C.3     1  UNL1        0.0748
     22 C          62.3314   88.3257   11.3747 C.3     1  UNL1        0.0432
     23 H          59.8314   90.3200   11.8366 H       1  UNL1        0.1236
     24 C          64.2110   88.5615   13.6074 C.3     1  UNL1        0.0725
     25 C          64.2283   87.8628   14.9345 C.3     1  UNL1        0.0188
     26 C          64.5674   86.4036   15.0096 C.3     1  UNL1        0.0185
     27 C          63.6877   85.4680   15.7849 C.3     1  UNL1        0.0686
     28 N          62.4483   84.9072   15.1529 N.3     1  UNL1       -0.2985
     29 H          61.9479   85.6931   14.7380 H       1  UNL1        0.1232
     30 C          62.5589   83.8545   14.0901 C.3     1  UNL1        0.0557
     31 C          62.8460   84.2483   12.6715 C.3     1  UNL1        0.0274
     32 C          62.9566   83.1956   11.6086 C.3     1  UNL1        0.0589
     33 S          62.7801   81.7492   11.9644 S.3     1  UNL1       -0.1402
     34 C          62.4930   81.3554   13.3831 C.3     1  UNL1        0.0589
     35 C          62.3824   82.4080   14.4459 C.3     1  UNL1        0.0274
@<TRIPOS>BOND
     1    13    14   ar
     2    14    15   ar
     3    15    16   ar
     4    16    17   ar
     5    17    18   ar
     6    17    19    1
     7    19    20    1
     8    20    21    1
     9    21    12    1
    10    12     1    1
    11     1    24    1
    12    24    25    1
    13    25    26    1
    14    26    27    1
    15    27    28    1
    16    28    30    1
    17    30    31    1
    18    31    32    1
    19    32    33    1
    20    33    34    1
    21    34    35    1
    22     2     1    1
    23     2     3    1
    24     3     4    1
    25     4     5    1
    26     5     6    1
    27     6     7   ar
    28     7     8   ar
    29     8     9   ar
    30     9    10   ar
    31    10    11   ar
    32    21    22    1
    33    18    13   ar
    34    35    30    1
    35    11     2    1
    36    22    16    1
    37    11     6   ar
    38    20    23    1
    39    28    29    1
@<TRIPOS>MOLECULE
*****
 35 39 0 0 0
SMALL
GASTEIGER

@<TRIPOS>ATOM
      1 N          63.4244   88.9692   13.5073 N.3     1  UNL1       -0.2679
      2 C          62.9517   89.2816   12.1185 C.3     1  UNL1        0.0978
      3 C          63.1023   90.6694   11.5694 C.3     1  UNL1        0.0224
      4 C          62.6296   90.9818   10.1805 C.3     1  UNL1        0.0065
      5 C          62.0064   89.9065    9.3407 C.3     1  UNL1        0.0277
      6 C          61.8558   88.5188    9.8897 C.ar    1  UNL1       -0.0073
      7 C          61.2326   87.4435    9.0500 C.ar    1  UNL1       -0.0015
      8 C          61.0821   86.0557    9.5990 C.ar    1  UNL1        0.0203
      9 C          61.5547   85.7433   10.9879 C.ar    1  UNL1        0.0985
     10 N          62.1779   86.8186   11.8276 N.ar    1  UNL1       -0.2471
     11 C          62.3285   88.2063   11.2786 C.ar    1  UNL1        0.0695
     12 C          63.2283   89.9683   14.6089 C.3     1  UNL1        0.0886
     13 C          69.0692   93.4678   15.5510 C.ar    1  UNL1       -0.0003
     14 C          69.2129   92.5882   14.3446 C.ar    1  UNL1       -0.0003
     15 C          68.0735   91.7123   13.9149 C.ar    1  UNL1       -0.0045
     16 C          66.7903   91.7161   14.6916 C.ar    1  UNL1       -0.0234
     17 C          66.6466   92.5957   15.8980 C.ar    1  UNL1       -0.0103
     18 C          67.7860   93.4716   16.3278 C.ar    1  UNL1       -0.0032
     19 C          65.3633   92.5996   16.6748 C.3     1  UNL1        0.0953
     20 N          64.2239   91.7238   16.2451 N.3     1  UNL1       -0.2934
     21 C          64.3677   90.8441   15.0386 C.3     1  UNL1        0.0748
     22 C          65.6509   90.8403   14.2619 C.3     1  UNL1        0.0432
     23 H          63.4300   92.3392   16.0679 H       1  UNL1        0.1236
     24 C          64.0931   87.6576   13.7947 C.3     1  UNL1        0.0725
     25 C          64.2126   87.1705   15.2083 C.3     1  UNL1        0.0188
     26 C          64.3307   85.7016   15.4881 C.3     1  UNL1        0.0185
     27 C          64.7786   84.7655   14.4049 C.3     1  UNL1        0.0686
     28 N          63.8266   84.3680   13.3160 N.3     1  UNL1       -0.2985
     29 H          64.3288   84.4701   12.4341 H       1  UNL1        0.1232
     30 C          63.2211   82.9957   13.3132 C.3     1  UNL1        0.0557
     31 C          63.6064   82.0082   12.2520 C.3     1  UNL1        0.0274
     32 C          63.0008   80.6358   12.2491 C.3     1  UNL1        0.0589
     33 S          62.0100   80.2510   13.3076 S.3     1  UNL1       -0.1402
     34 C          61.6247   81.2387   14.3688 C.3     1  UNL1        0.0589
     35 C          62.2303   82.6110   14.3716 C.3     1  UNL1        0.0274
@<TRIPOS>BOND
     1    13    14   ar
     2    14    15   ar
     3    15    16   ar
     4    16    17   ar
     5    17    18   ar
     6    17    19    1
     7    19    20    1
     8    20    21    1
     9    21    12    1
    10    12     1    1
    11     1    24    1
    12    24    25    1
    13    25    26    1
    14    26    27    1
    15    27    28    1
    16    28    30    1
    17    30    31    1
    18    31    32    1
    19    32    33    1
    20    33    34    1
    21    34    35    1
    22     2     1    1
    23     2     3    1
    24     3     4    1
    25     4     5    1
    26     5     6    1
    27     6     7   ar
    28     7     8   ar
    29     8     9   ar
    30     9    10   ar
    31    10    11   ar
    32    21    22    1
    33    18    13   ar
    34    35    30    1
    35    11     2    1
    36    22    16    1
    37    11     6   ar
    38    20    23    1
    39    28    29    1
@<TRIPOS>MOLECULE
*****
 35 39 0 0 0
SMALL
GASTEIGER

@<TRIPOS>ATOM
      1 N          63.5849   88.7206   14.0575 N.3     1  UNL1       -0.2679
      2 C          63.3312   89.3244   12.7081 C.3     1  UNL1        0.0978
      3 C          63.8887   90.6764   12.3746 C.3     1  UNL1        0.0224
      4 C          63.6350   91.2803   11.0251 C.3     1  UNL1        0.0065
      5 C          62.8237   90.5322   10.0092 C.3     1  UNL1        0.0277
      6 C          62.2662   89.1802   10.3427 C.ar    1  UNL1       -0.0073
      7 C          61.4549   88.4320    9.3268 C.ar    1  UNL1       -0.0015
      8 C          60.8973   87.0800    9.6603 C.ar    1  UNL1        0.0203
      9 C          61.1510   86.4762   11.0097 C.ar    1  UNL1        0.0985
     10 N          61.9623   87.2243   12.0256 N.ar    1  UNL1       -0.2471
     11 C          62.5199   88.5763   11.6921 C.ar    1  UNL1        0.0695
     12 C          64.4568   87.5065   14.1840 C.3     1  UNL1        0.0886
     13 C          62.0976   81.1004   13.3802 C.ar    1  UNL1       -0.0003
     14 C          62.8394   81.5094   12.1423 C.ar    1  UNL1       -0.0003
     15 C          63.4596   82.8724   12.0555 C.ar    1  UNL1       -0.0045
     16 C          63.3380   83.8265   13.2066 C.ar    1  UNL1       -0.0234
     17 C          62.5962   83.4175   14.4445 C.ar    1  UNL1       -0.0103
     18 C          61.9760   82.0544   14.5313 C.ar    1  UNL1       -0.0032
     19 C          62.4746   84.3715   15.5956 C.3     1  UNL1        0.0953
     20 N          63.0948   85.7345   15.5088 N.3     1  UNL1       -0.2934
     21 C          63.8366   86.1435   14.2708 C.3     1  UNL1        0.0748
     22 C          63.9582   85.1895   13.1198 C.3     1  UNL1        0.0432
     23 H          63.7530   85.8085   16.2845 H       1  UNL1        0.1236
     24 C          62.9667   89.3307   15.2805 C.3     1  UNL1        0.0725
     25 C          63.7856   90.2156   16.1728 C.3     1  UNL1        0.0188
     26 C          64.1965   91.5798   15.7037 C.3     1  UNL1        0.0185
     27 C          65.6270   91.8489   15.3411 C.3     1  UNL1        0.0686
     28 N          66.0059   93.1509   14.6998 N.3     1  UNL1       -0.2985
     29 H          66.7946   93.5217   15.2298 H       1  UNL1        0.1232
     30 C          66.4009   93.1875   13.2532 C.3     1  UNL1        0.0557
     31 C          66.0358   94.3702   12.4058 C.3     1  UNL1        0.0274
     32 C          66.4308   94.4068   10.9592 C.3     1  UNL1        0.0589
     33 S          67.1908   93.2608   10.3600 S.3     1  UNL1       -0.1402
     34 C          67.5558   92.0781   11.2074 C.3     1  UNL1        0.0589
     35 C          67.1608   92.0415   12.6540 C.3     1  UNL1        0.0274
@<TRIPOS>BOND
     1    13    14   ar
     2    14    15   ar
     3    15    16   ar
     4    16    17   ar
     5    17    18   ar
     6    17    19    1
     7    19    20    1
     8    20    21    1
     9    21    12    1
    10    12     1    1
    11     1    24    1
    12    24    25    1
    13    25    26    1
    14    26    27    1
    15    27    28    1
    16    28    30    1
    17    30    31    1
    18    31    32    1
    19    32    33    1
    20    33    34    1
    21    34    35    1
    22     2     1    1
    23     2     3    1
    24     3     4    1
    25     4     5    1
    26     5     6    1
    27     6     7   ar
    28     7     8   ar
    29     8     9   ar
    30     9    10   ar
    31    10    11   ar
    32    21    22    1
    33    18    13   ar
    34    35    30    1
    35    11     2    1
    36    22    16    1
    37    11     6   ar
    38    20    23    1
    39    28    29    1
@<TRIPOS>MOLECULE
*****
 35 39 0 0 0
SMALL
GASTEIGER

@<TRIPOS>ATOM
      1 N          60.8196   87.5412    9.9845 N.3     1  UNL1       -0.2679
      2 C          61.7285   86.3913    9.6660 C.3     1  UNL1        0.0978
      3 C          62.0789   86.0850    8.2400 C.3     1  UNL1        0.0224
      4 C          62.9879   84.9350    7.9215 C.3     1  UNL1        0.0065
      5 C          63.5464   84.0914    9.0289 C.3     1  UNL1        0.0277
      6 C          63.1959   84.3977   10.4549 C.ar    1  UNL1       -0.0073
      7 C          63.7544   83.5541   11.5623 C.ar    1  UNL1       -0.0015
      8 C          63.4040   83.8605   12.9883 C.ar    1  UNL1        0.0203
      9 C          62.4951   85.0104   13.3068 C.ar    1  UNL1        0.0985
     10 N          61.9366   85.8540   12.1994 N.ar    1  UNL1       -0.2471
     11 C          62.2870   85.5476   10.7734 C.ar    1  UNL1        0.0695
     12 C          61.0260   88.3347   11.2407 C.3     1  UNL1        0.0886
     13 C          66.0695   92.7896   12.6433 C.ar    1  UNL1       -0.0003
     14 C          65.8795   91.8771   13.8184 C.ar    1  UNL1       -0.0003
     15 C          64.8328   90.8036   13.7730 C.ar    1  UNL1       -0.0045
     16 C          63.9761   90.6427   12.5523 C.ar    1  UNL1       -0.0234
     17 C          64.1660   91.5552   11.3771 C.ar    1  UNL1       -0.0103
     18 C          65.2127   92.6287   11.4226 C.ar    1  UNL1       -0.0032
     19 C          63.3093   91.3943   10.1564 C.3     1  UNL1        0.0953
     20 N          62.2626   90.3208   10.1109 N.3     1  UNL1       -0.2934
     21 C          62.0727   89.4082   11.2862 C.3     1  UNL1        0.0748
     22 C          62.9294   89.5692   12.5068 C.3     1  UNL1        0.0432
     23 H          62.4832   89.7282    9.3105 H       1  UNL1        0.1236
     24 C          59.7043   87.8977    9.0470 C.3     1  UNL1        0.0725
     25 C          59.8784   89.0192    8.0663 C.3     1  UNL1        0.0188
     26 C          59.1270   89.0039    6.7682 C.3     1  UNL1        0.0185
     27 C          59.2441   90.1605    5.8202 C.3     1  UNL1        0.0686
     28 N          60.5805   90.7952    5.5728 N.3     1  UNL1       -0.2985
     29 H          61.2703   90.0439    5.5866 H       1  UNL1        0.1232
     30 C          60.8178   91.5778    4.3154 C.3     1  UNL1        0.0557
     31 C          62.1457   91.4989    3.6222 C.3     1  UNL1        0.0274
     32 C          62.3831   92.2815    2.3648 C.3     1  UNL1        0.0589
     33 S          61.2926   93.1431    1.8005 S.3     1  UNL1       -0.1402
     34 C          59.9646   93.2221    2.4937 C.3     1  UNL1        0.0589
     35 C          59.7273   92.4394    3.7511 C.3     1  UNL1        0.0274
@<TRIPOS>BOND
     1    13    14   ar
     2    14    15   ar
     3    15    16   ar
     4    16    17   ar
     5    17    18   ar
     6    17    19    1
     7    19    20    1
     8    20    21    1
     9    21    12    1
    10    12     1    1
    11     1    24    1
    12    24    25    1
    13    25    26    1
    14    26    27    1
    15    27    28    1
    16    28    30    1
    17    30    31    1
    18    31    32    1
    19    32    33    1
    20    33    34    1
    21    34    35    1
    22     2     1    1
    23     2     3    1
    24     3     4    1
    25     4     5    1
    26     5     6    1
    27     6     7   ar
    28     7     8   ar
    29     8     9   ar
    30     9    10   ar
    31    10    11   ar
    32    21    22    1
    33    18    13   ar
    34    35    30    1
    35    11     2    1
    36    22    16    1
    37    11     6   ar
    38    20    23    1
    39    28    29    1
@<TRIPOS>MOLECULE
*****
 35 39 0 0 0
SMALL
GASTEIGER

@<TRIPOS>ATOM
      1 N          63.2616   85.2928   12.9850 N.3     1  UNL1       -0.2679
      2 C          63.4028   84.0782   12.1163 C.3     1  UNL1        0.0978
      3 C          64.0249   84.1968   10.7565 C.3     1  UNL1        0.0224
      4 C          64.1660   82.9821    9.8878 C.3     1  UNL1        0.0065
      5 C          63.6852   81.6489   10.3788 C.3     1  UNL1        0.0277
      6 C          63.0632   81.5302   11.7386 C.ar    1  UNL1       -0.0073
      7 C          62.5823   80.1970   12.2297 C.ar    1  UNL1       -0.0015
      8 C          61.9603   80.0783   13.5895 C.ar    1  UNL1        0.0203
      9 C          61.8191   81.2929   14.4582 C.ar    1  UNL1        0.0985
     10 N          62.2999   82.6262   13.9671 N.ar    1  UNL1       -0.2471
     11 C          62.9220   82.7448   12.6074 C.ar    1  UNL1        0.0695
     12 C          61.9572   86.0318   13.0348 C.3     1  UNL1        0.0886
     13 C          59.5916   88.8142    7.2114 C.ar    1  UNL1       -0.0003
     14 C          59.3448   87.3349    7.1844 C.ar    1  UNL1       -0.0003
     15 C          59.7686   86.4826    8.3437 C.ar    1  UNL1       -0.0045
     16 C          60.4391   87.1095    9.5300 C.ar    1  UNL1       -0.0234
     17 C          60.6859   88.5888    9.5569 C.ar    1  UNL1       -0.0103
     18 C          60.2621   89.4412    8.3976 C.ar    1  UNL1       -0.0032
     19 C          61.3565   89.2158   10.7432 C.3     1  UNL1        0.0953
     20 N          61.7802   88.3635   11.9025 N.3     1  UNL1       -0.2934
     21 C          61.5334   86.8841   11.8755 C.3     1  UNL1        0.0748
     22 C          60.8629   86.2572   10.6892 C.3     1  UNL1        0.0432
     23 H          61.3007   88.7271   12.7261 H       1  UNL1        0.1236
     24 C          64.4248   85.7685   13.8041 C.3     1  UNL1        0.0725
     25 C          64.2333   86.8583   14.8167 C.3     1  UNL1        0.0188
     26 C          64.4742   88.2885   14.4339 C.3     1  UNL1        0.0185
     27 C          63.5615   89.3650   14.9422 C.3     1  UNL1        0.0686
     28 N          63.1505   90.4888   14.0377 N.3     1  UNL1       -0.2985
     29 H          62.6699   91.1746   14.6199 H       1  UNL1        0.1232
     30 C          64.1868   91.2372   13.2530 C.3     1  UNL1        0.0557
     31 C          63.9839   91.4847   11.7876 C.3     1  UNL1        0.0274
     32 C          65.0203   92.2332   11.0028 C.3     1  UNL1        0.0589
     33 S          66.2595   92.7342   11.6835 S.3     1  UNL1       -0.1402
     34 C          66.4624   92.4867   13.1490 C.3     1  UNL1        0.0589
     35 C          65.4260   91.7382   13.9337 C.3     1  UNL1        0.0274
@<TRIPOS>BOND
     1    13    14   ar
     2    14    15   ar
     3    15    16   ar
     4    16    17   ar
     5    17    18   ar
     6    17    19    1
     7    19    20    1
     8    20    21    1
     9    21    12    1
    10    12     1    1
    11     1    24    1
    12    24    25    1
    13    25    26    1
    14    26    27    1
    15    27    28    1
    16    28    30    1
    17    30    31    1
    18    31    32    1
    19    32    33    1
    20    33    34    1
    21    34    35    1
    22     2     1    1
    23     2     3    1
    24     3     4    1
    25     4     5    1
    26     5     6    1
    27     6     7   ar
    28     7     8   ar
    29     8     9   ar
    30     9    10   ar
    31    10    11   ar
    32    21    22    1
    33    18    13   ar
    34    35    30    1
    35    11     2    1
    36    22    16    1
    37    11     6   ar
    38    20    23    1
    39    28    29    1
@<TRIPOS>MOLECULE
*****
 35 39 0 0 0
SMALL
GASTEIGER

@<TRIPOS>ATOM
      1 N          63.8667   89.4125   14.6395 N.3     1  UNL1       -0.2679
      2 C          63.5143   88.3238   15.6092 C.3     1  UNL1        0.0978
      3 C          63.1084   88.6703   17.0110 C.3     1  UNL1        0.0224
      4 C          62.7559   87.5815   17.9807 C.3     1  UNL1        0.0065
      5 C          62.8094   86.1461   17.5485 C.3     1  UNL1        0.0277
      6 C          63.2153   85.7995   16.1467 C.ar    1  UNL1       -0.0073
      7 C          63.2688   84.3642   15.7145 C.ar    1  UNL1       -0.0015
      8 C          63.6747   84.0176   14.3127 C.ar    1  UNL1        0.0203
      9 C          64.0272   85.1064   13.3430 C.ar    1  UNL1        0.0985
     10 N          63.9737   86.5417   13.7752 N.ar    1  UNL1       -0.2471
     11 C          63.5678   86.8883   15.1770 C.ar    1  UNL1        0.0695
     12 C          62.7814   90.1481   13.9107 C.3     1  UNL1        0.0886
     13 C          60.4660   86.5156    8.5541 C.ar    1  UNL1       -0.0003
     14 C          61.9403   86.2836    8.7043 C.ar    1  UNL1       -0.0003
     15 C          62.6982   86.9637    9.8056 C.ar    1  UNL1       -0.0045
     16 C          61.9819   87.8758   10.7568 C.ar    1  UNL1       -0.0234
     17 C          60.5076   88.1078   10.6066 C.ar    1  UNL1       -0.0103
     18 C          59.7497   87.4277    9.5053 C.ar    1  UNL1       -0.0032
     19 C          59.7912   89.0200   11.5579 C.3     1  UNL1        0.0953
     20 N          60.5491   89.7001   12.6592 N.3     1  UNL1       -0.2934
     21 C          62.0235   89.4680   12.8094 C.3     1  UNL1        0.0748
     22 C          62.7398   88.5559   11.8582 C.3     1  UNL1        0.0432
     23 H          60.1150   89.4129   13.5364 H       1  UNL1        0.1236
     24 C          65.3045   89.7658   14.3986 C.3     1  UNL1        0.0725
     25 C          65.6606   91.0974   13.8071 C.3     1  UNL1        0.0188
     26 C          66.2872   92.1560   14.6655 C.3     1  UNL1        0.0185
     27 C          66.5869   93.5083   14.0897 C.3     1  UNL1        0.0686
     28 N          65.7587   94.0422   12.9587 N.3     1  UNL1       -0.2985
     29 H          65.4104   94.9543   13.2538 H       1  UNL1        0.1232
     30 C          66.3728   94.2310   11.6033 C.3     1  UNL1        0.0557
     31 C          66.9425   93.0545   10.8676 C.3     1  UNL1        0.0274
     32 C          67.5568   93.2433    9.5122 C.3     1  UNL1        0.0589
     33 S          67.6012   94.6086    8.8925 S.3     1  UNL1       -0.1402
     34 C          67.0315   95.7851    9.6283 C.3     1  UNL1        0.0589
     35 C          66.4173   95.5963   10.9837 C.3     1  UNL1        0.0274
@<TRIPOS>BOND
     1    13    14   ar
     2    14    15   ar
     3    15    16   ar
     4    16    17   ar
     5    17    18   ar
     6    17    19    1
     7    19    20    1
     8    20    21    1
     9    21    12    1
    10    12     1    1
    11     1    24    1
    12    24    25    1
    13    25    26    1
    14    26    27    1
    15    27    28    1
    16    28    30    1
    17    30    31    1
    18    31    32    1
    19    32    33    1
    20    33    34    1
    21    34    35    1
    22     2     1    1
    23     2     3    1
    24     3     4    1
    25     4     5    1
    26     5     6    1
    27     6     7   ar
    28     7     8   ar
    29     8     9   ar
    30     9    10   ar
    31    10    11   ar
    32    21    22    1
    33    18    13   ar
    34    35    30    1
    35    11     2    1
    36    22    16    1
    37    11     6   ar
    38    20    23    1
    39    28    29    1
@<TRIPOS>MOLECULE
*****
 35 39 0 0 0
SMALL
GASTEIGER

@<TRIPOS>ATOM
      1 N          61.8452   87.3690   11.2395 N.3     1  UNL1       -0.2679
      2 C          61.0014   87.1344   10.0217 C.3     1  UNL1        0.0978
      3 C          59.6576   87.7901    9.9027 C.3     1  UNL1        0.0224
      4 C          58.8138   87.5555    8.6849 C.3     1  UNL1        0.0065
      5 C          59.3138   86.6652    7.5861 C.3     1  UNL1        0.0277
      6 C          60.6577   86.0095    7.7052 C.ar    1  UNL1       -0.0073
      7 C          61.1577   85.1192    6.6064 C.ar    1  UNL1       -0.0015
      8 C          62.5016   84.4635    6.7254 C.ar    1  UNL1        0.0203
      9 C          63.3454   84.6981    7.9432 C.ar    1  UNL1        0.0985
     10 N          62.8453   85.5884    9.0419 N.ar    1  UNL1       -0.2471
     11 C          61.5014   86.2441    8.9229 C.ar    1  UNL1        0.0695
     12 C          61.7340   88.6623   11.9912 C.3     1  UNL1        0.0886
     13 C          66.3529   93.7446   11.6982 C.ar    1  UNL1       -0.0003
     14 C          66.3945   93.1213   13.0619 C.ar    1  UNL1       -0.0003
     15 C          65.4791   91.9802   13.3932 C.ar    1  UNL1       -0.0045
     16 C          64.5220   91.4624   12.3609 C.ar    1  UNL1       -0.0234
     17 C          64.4804   92.0857   10.9972 C.ar    1  UNL1       -0.0103
     18 C          65.3958   93.2268   10.6658 C.ar    1  UNL1       -0.0032
     19 C          63.5232   91.5679    9.9647 C.3     1  UNL1        0.0953
     20 N          62.6078   90.4267   10.2961 N.3     1  UNL1       -0.2934
     21 C          62.6495   89.8035   11.6599 C.3     1  UNL1        0.0748
     22 C          63.6066   90.3213   12.6922 C.3     1  UNL1        0.0432
     23 H          62.8089   89.6840    9.6266 H       1  UNL1        0.1236
     24 C          62.8001   86.3103   11.7056 C.3     1  UNL1        0.0725
     25 C          62.2970   85.1471   12.5079 C.3     1  UNL1        0.0188
     26 C          63.2320   84.0371   12.8871 C.3     1  UNL1        0.0185
     27 C          64.4901   84.3422   13.6448 C.3     1  UNL1        0.0686
     28 N          64.4344   84.5855   15.1239 N.3     1  UNL1       -0.2985
     29 H          65.3731   84.4170   15.4856 H       1  UNL1        0.1232
     30 C          64.0019   85.9226   15.6483 C.3     1  UNL1        0.0557
     31 C          63.1912   86.0078   16.9074 C.3     1  UNL1        0.0274
     32 C          62.7586   87.3450   17.4318 C.3     1  UNL1        0.0589
     33 S          63.1368   88.5969   16.6971 S.3     1  UNL1       -0.1402
     34 C          63.9476   88.5115   15.4379 C.3     1  UNL1        0.0589
     35 C          64.3801   87.1744   14.9135 C.3     1  UNL1        0.0274
@<TRIPOS>BOND
     1    13    14   ar
     2    14    15   ar
     3    15    16   ar
     4    16    17   ar
     5    17    18   ar
     6    17    19    1
     7    19    20    1
     8    20    21    1
     9    21    12    1
    10    12     1    1
    11     1    24    1
    12    24    25    1
    13    25    26    1
    14    26    27    1
    15    27    28    1
    16    28    30    1
    17    30    31    1
    18    31    32    1
    19    32    33    1
    20    33    34    1
    21    34    35    1
    22     2     1    1
    23     2     3    1
    24     3     4    1
    25     4     5    1
    26     5     6    1
    27     6     7   ar
    28     7     8   ar
    29     8     9   ar
    30     9    10   ar
    31    10    11   ar
    32    21    22    1
    33    18    13   ar
    34    35    30    1
    35    11     2    1
    36    22    16    1
    37    11     6   ar
    38    20    23    1
    39    28    29    1
@<TRIPOS>MOLECULE
*****
 35 39 0 0 0
SMALL
GASTEIGER

@<TRIPOS>ATOM
      1 N          62.4478   89.8050   11.4348 N.3     1  UNL1       -0.2679
      2 C          63.2062   89.6642   12.7211 C.3     1  UNL1        0.0978
      3 C          63.6275   90.8868   13.4812 C.3     1  UNL1        0.0224
      4 C          64.3861   90.7459   14.7676 C.3     1  UNL1        0.0065
      5 C          64.7233   89.3825   15.2940 C.3     1  UNL1        0.0277
      6 C          64.3020   88.1598   14.5340 C.ar    1  UNL1       -0.0073
      7 C          64.6392   86.7963   15.0603 C.ar    1  UNL1       -0.0015
      8 C          64.2179   85.5736   14.3003 C.ar    1  UNL1        0.0203
      9 C          63.4594   85.7144   13.0139 C.ar    1  UNL1        0.0985
     10 N          63.1222   87.0779   12.4876 N.ar    1  UNL1       -0.2471
     11 C          63.5435   88.3006   13.2476 C.ar    1  UNL1        0.0695
     12 C          61.1194   89.1281   11.2694 C.3     1  UNL1        0.0886
     13 C          61.4238   84.3656    6.3220 C.ar    1  UNL1       -0.0003
     14 C          62.7741   84.4956    6.9623 C.ar    1  UNL1       -0.0003
     15 C          62.9832   85.4741    8.0798 C.ar    1  UNL1       -0.0045
     16 C          61.8421   86.3226    8.5571 C.ar    1  UNL1       -0.0234
     17 C          60.4919   86.1927    7.9168 C.ar    1  UNL1       -0.0103
     18 C          60.2827   85.2142    6.7993 C.ar    1  UNL1       -0.0032
     19 C          59.3507   87.0412    8.3941 C.3     1  UNL1        0.0953
     20 N          59.5599   88.0197    9.5116 N.3     1  UNL1       -0.2934
     21 C          60.9102   88.1496   10.1519 C.3     1  UNL1        0.0748
     22 C          62.0513   87.3011    9.6746 C.3     1  UNL1        0.0432
     23 H          58.9062   87.7652   10.2521 H       1  UNL1        0.1236
     24 C          63.0176   90.6227   10.3137 C.3     1  UNL1        0.0725
     25 C          63.6661   91.9438   10.6035 C.3     1  UNL1        0.0188
     26 C          65.1274   92.1387   10.3267 C.3     1  UNL1        0.0185
     27 C          65.7389   93.5028   10.4514 C.3     1  UNL1        0.0686
     28 N          65.8669   94.1469   11.8000 N.3     1  UNL1       -0.2985
     29 H          64.9191   94.3264   12.1316 H       1  UNL1        0.1232
     30 C          66.5851   93.4335   12.9068 C.3     1  UNL1        0.0557
     31 C          66.3918   93.8687   14.3291 C.3     1  UNL1        0.0274
     32 C          67.1100   93.1553   15.4360 C.3     1  UNL1        0.0589
     33 S          68.0217   92.0067   15.1205 S.3     1  UNL1       -0.1402
     34 C          68.2150   91.5714   13.6980 C.3     1  UNL1        0.0589
     35 C          67.4967   92.2849   12.5912 C.3     1  UNL1        0.0274
@<TRIPOS>BOND
     1    13    14   ar
     2    14    15   ar
     3    15    16   ar
     4    16    17   ar
     5    17    18   ar
     6    17    19    1
     7    19    20    1
     8    20    21    1
     9    21    12    1
    10    12     1    1
    11     1    24    1
    12    24    25    1
    13    25    26    1
    14    26    27    1
    15    27    28    1
    16    28    30    1
    17    30    31    1
    18    31    32    1
    19    32    33    1
    20    33    34    1
    21    34    35    1
    22     2     1    1
    23     2     3    1
    24     3     4    1
    25     4     5    1
    26     5     6    1
    27     6     7   ar
    28     7     8   ar
    29     8     9   ar
    30     9    10   ar
    31    10    11   ar
    32    21    22    1
    33    18    13   ar
    34    35    30    1
    35    11     2    1
    36    22    16    1
    37    11     6   ar
    38    20    23    1
    39    28    29    1
