@<TRIPOS>MOLECULE
*****
 36 39 0 0 0
SMALL
GASTEIGER

@<TRIPOS>ATOM
      1 O          60.8398   88.6060   10.1217 O.3     1  UNL1       -0.4757
      2 C          61.4450   87.3148   10.5869 C.ar    1  UNL1        0.1367
      3 C          62.2504   87.2767   11.8518 C.ar    1  UNL1        0.0663
      4 C          62.8557   85.9854   12.3169 C.ar    1  UNL1        0.1475
      5 F          63.6610   85.9473   13.5818 F       1  UNL1       -0.2039
      6 C          62.6556   84.7323   11.5171 C.ar    1  UNL1        0.0821
      7 C          61.8502   84.7704   10.2523 C.ar    1  UNL1        0.0055
      8 C          61.2450   86.0616    9.7871 C.ar    1  UNL1        0.0117
      9 C          63.2608   83.4410   11.9823 C.2     1  UNL1        0.2662
     10 O          64.5590   82.9679   11.3982 O.2     1  UNL1       -0.2685
     11 N          62.5680   82.6230   13.0314 N.am    1  UNL1       -0.1851
     12 H          61.7161   82.9335   13.4147 H       1  UNL1        0.1765
     13 S          63.1733   81.3317   13.4965 S.O2    1  UNL1        0.0581
     14 C          63.7786   80.0405   13.9617 C.3     1  UNL1        0.1997
     15 O          62.6151   80.6357   12.2907 O.2     1  UNL1       -0.1543
     16 O          63.7315   82.0277   14.7024 O.2     1  UNL1       -0.1543
     17 C          60.4396   86.0997    8.5222 C.3     1  UNL1        0.0253
     18 C          60.1794   85.5992    7.1323 C.3     1  UNL1        0.0048
     19 C          59.3049   86.6661    7.7212 C.3     1  UNL1        0.0048
     20 C          60.8257   89.7984   11.0316 C.3     1  UNL1        0.2054
     21 N          64.6457   92.0144   11.8961 N.3     1  UNL1       -0.2703
     22 C          64.1020   91.9737   10.4987 C.3     1  UNL1        0.0724
     23 C          62.8287   91.2350   10.2105 C.3     1  UNL1        0.0211
     24 C          62.0990   90.5371   11.3198 C.3     1  UNL1        0.0465
     25 C          62.6427   90.5778   12.7172 C.3     1  UNL1        0.0211
     26 C          63.9160   91.3164   13.0054 C.3     1  UNL1        0.0724
     27 C          66.3859   92.9188   13.6000 C.3     1  UNL1        0.0222
     28 C          65.9190   92.7530   12.1842 C.3     1  UNL1        0.0802
     29 C          66.7254   93.3259   11.0565 C.ar    1  UNL1       -0.0061
     30 C          67.6299   92.4379   10.2545 C.ar    1  UNL1        0.0085
     31 C          68.4362   93.0108    9.1269 C.ar    1  UNL1        0.0582
     32 CL         69.3408   92.1227    8.3249 Cl      1  UNL1       -0.0822
     33 C          68.3380   94.4717    8.8012 C.ar    1  UNL1        0.0228
     34 C          67.4335   95.3597    9.6032 C.ar    1  UNL1        0.0582
     35 CL         67.3352   96.8206    9.2775 Cl      1  UNL1       -0.0822
     36 C          66.6271   94.7868   10.7308 C.ar    1  UNL1        0.0085
@<TRIPOS>BOND
     1    28    27    1
     2    28    29    1
     3    29    30   ar
     4    30    31   ar
     5    31    32    1
     6    31    33   ar
     7    33    34   ar
     8    34    35    1
     9    34    36   ar
    10    28    21    1
    11    21    22    1
    12    22    23    1
    13    23    24    1
    14    24    20    1
    15    20     1    1
    16     1     2    1
    17     2     3   ar
    18     3     4   ar
    19     4     5    1
    20     4     6   ar
    21     6     9    1
    22     9    10    2
    23     9    11   am
    24    11    13    1
    25    13    14    1
    26    13    15    2
    27    13    16    2
    28     6     7   ar
    29     7     8   ar
    30     8    17    1
    31    17    18    1
    32    18    19    1
    33    24    25    1
    34    25    26    1
    35    36    29   ar
    36    26    21    1
    37     8     2   ar
    38    19    17    1
    39    11    12    1
@<TRIPOS>MOLECULE
*****
 36 39 0 0 0
SMALL
GASTEIGER

@<TRIPOS>ATOM
      1 O          60.2329   90.0923    9.4811 O.3     1  UNL1       -0.4757
      2 C          61.3601   90.3659   10.4322 C.ar    1  UNL1        0.1367
      3 C          62.6689   90.8849    9.9146 C.ar    1  UNL1        0.0663
      4 C          63.7961   91.1585   10.8656 C.ar    1  UNL1        0.1475
      5 F          65.1048   91.6775   10.3481 F       1  UNL1       -0.2039
      6 C          63.6146   90.9130   12.3343 C.ar    1  UNL1        0.0821
      7 C          62.3059   90.3939   12.8518 C.ar    1  UNL1        0.0055
      8 C          61.1787   90.1204   11.9007 C.ar    1  UNL1        0.0117
      9 C          64.7418   91.1865   13.2854 C.2     1  UNL1        0.2662
     10 O          65.0712   90.1961   14.3628 O.2     1  UNL1       -0.2685
     11 N          65.5397   92.4504   13.1591 N.am    1  UNL1       -0.1851
     12 H          65.3235   93.1004   12.4520 H       1  UNL1        0.1765
     13 S          66.6669   92.7239   14.1101 S.O2    1  UNL1        0.0581
     14 C          67.7941   92.9975   15.0612 C.3     1  UNL1        0.1997
     15 O          67.6544   92.3190   13.0562 O.2     1  UNL1       -0.1543
     16 O          65.6794   93.1289   15.1641 O.2     1  UNL1       -0.1543
     17 C          59.8699   89.6013   12.4183 C.3     1  UNL1        0.0253
     18 C          58.4009   89.3636   12.2302 C.3     1  UNL1        0.0048
     19 C          59.0722   88.9399   13.5029 C.3     1  UNL1        0.0048
     20 C          60.1739   88.7876    8.7434 C.3     1  UNL1        0.2054
     21 N          62.4477   85.2247   10.2880 N.3     1  UNL1       -0.2703
     22 C          62.6955   85.7269    8.8964 C.3     1  UNL1        0.0724
     23 C          61.9376   86.9145    8.3816 C.3     1  UNL1        0.0211
     24 C          60.9318   87.6000    9.2583 C.3     1  UNL1        0.0465
     25 C          60.6840   87.0978   10.6499 C.3     1  UNL1        0.0211
     26 C          61.4419   85.9102   11.1647 C.3     1  UNL1        0.0724
     27 C          64.1127   83.2712    9.8859 C.3     1  UNL1        0.0222
     28 C          63.2057   84.0371   10.8028 C.3     1  UNL1        0.0802
     29 C          63.0566   83.6154   12.2346 C.ar    1  UNL1       -0.0061
     30 C          63.6420   84.4573   13.3293 C.ar    1  UNL1        0.0085
     31 C          63.4929   84.0356   14.7610 C.ar    1  UNL1        0.0582
     32 CL         64.0784   84.8775   15.8558 Cl      1  UNL1       -0.0822
     33 C          62.7584   82.7719   15.0980 C.ar    1  UNL1        0.0228
     34 C          62.1729   81.9300   14.0034 C.ar    1  UNL1        0.0582
     35 CL         61.4384   80.6663   14.3404 Cl      1  UNL1       -0.0822
     36 C          62.3220   82.3517   12.5716 C.ar    1  UNL1        0.0085
@<TRIPOS>BOND
     1    28    27    1
     2    28    29    1
     3    29    30   ar
     4    30    31   ar
     5    31    32    1
     6    31    33   ar
     7    33    34   ar
     8    34    35    1
     9    34    36   ar
    10    28    21    1
    11    21    22    1
    12    22    23    1
    13    23    24    1
    14    24    20    1
    15    20     1    1
    16     1     2    1
    17     2     3   ar
    18     3     4   ar
    19     4     5    1
    20     4     6   ar
    21     6     9    1
    22     9    10    2
    23     9    11   am
    24    11    13    1
    25    13    14    1
    26    13    15    2
    27    13    16    2
    28     6     7   ar
    29     7     8   ar
    30     8    17    1
    31    17    18    1
    32    18    19    1
    33    24    25    1
    34    25    26    1
    35    36    29   ar
    36    26    21    1
    37     8     2   ar
    38    19    17    1
    39    11    12    1
@<TRIPOS>MOLECULE
*****
 36 39 0 0 0
SMALL
GASTEIGER

@<TRIPOS>ATOM
      1 O          65.7696   90.4701   14.8013 O.3     1  UNL1       -0.4757
      2 C          65.8533   91.5856   13.8019 C.ar    1  UNL1        0.1367
      3 C          64.9863   91.5626   12.5780 C.ar    1  UNL1        0.0663
      4 C          65.0701   92.6781   11.5786 C.ar    1  UNL1        0.1475
      5 F          64.2032   92.6552   10.3547 F       1  UNL1       -0.2039
      6 C          66.0208   93.8164   11.8031 C.ar    1  UNL1        0.0821
      7 C          66.8877   93.8393   13.0270 C.ar    1  UNL1        0.0055
      8 C          66.8039   92.7239   14.0264 C.ar    1  UNL1        0.0117
      9 C          66.1045   94.9319   10.8037 C.2     1  UNL1        0.2662
     10 O          65.9515   96.3548   11.2533 O.2     1  UNL1       -0.2685
     11 N          66.3411   94.6245    9.3548 N.am    1  UNL1       -0.1851
     12 H          66.4415   93.6906    9.0597 H       1  UNL1        0.1765
     13 S          66.4249   95.7399    8.3554 S.O2    1  UNL1        0.0581
     14 C          66.5086   96.8554    7.3560 C.3     1  UNL1        0.1997
     15 O          67.8401   95.3534    8.0426 O.2     1  UNL1       -0.1543
     16 O          65.0097   96.1264    8.6682 O.2     1  UNL1       -0.1543
     17 C          67.6709   92.7468   15.2503 C.3     1  UNL1        0.0253
     18 C          68.3907   93.5160   16.3181 C.3     1  UNL1        0.0048
     19 C          68.4527   92.0174   16.3023 C.3     1  UNL1        0.0048
     20 C          64.4584   89.7872   15.0549 C.3     1  UNL1        0.2054
     21 N          63.1843   86.3314   12.4695 N.3     1  UNL1       -0.2703
     22 C          63.8343   86.0753   13.7968 C.3     1  UNL1        0.0724
     23 C          64.2590   87.2273   14.6586 C.3     1  UNL1        0.0211
     24 C          64.0337   88.6353   14.1931 C.3     1  UNL1        0.0465
     25 C          63.3836   88.8914   12.8657 C.3     1  UNL1        0.0211
     26 C          62.9589   87.7394   12.0039 C.3     1  UNL1        0.0724
     27 C          62.9375   83.7722   12.0956 C.3     1  UNL1        0.0222
     28 C          62.7596   85.1795   11.6077 C.3     1  UNL1        0.0802
     29 C          62.1570   85.4348   10.2580 C.ar    1  UNL1       -0.0061
     30 C          60.9206   86.2752   10.1355 C.ar    1  UNL1        0.0085
     31 C          60.3180   86.5305    8.7858 C.ar    1  UNL1        0.0582
     32 CL         59.0816   87.3710    8.6633 Cl      1  UNL1       -0.0822
     33 C          60.9518   85.9454    7.5586 C.ar    1  UNL1        0.0228
     34 C          62.1881   85.1049    7.6811 C.ar    1  UNL1        0.0582
     35 CL         62.8219   84.5198    6.4540 Cl      1  UNL1       -0.0822
     36 C          62.7907   84.8496    9.0308 C.ar    1  UNL1        0.0085
@<TRIPOS>BOND
     1    28    27    1
     2    28    29    1
     3    29    30   ar
     4    30    31   ar
     5    31    32    1
     6    31    33   ar
     7    33    34   ar
     8    34    35    1
     9    34    36   ar
    10    28    21    1
    11    21    22    1
    12    22    23    1
    13    23    24    1
    14    24    20    1
    15    20     1    1
    16     1     2    1
    17     2     3   ar
    18     3     4   ar
    19     4     5    1
    20     4     6   ar
    21     6     9    1
    22     9    10    2
    23     9    11   am
    24    11    13    1
    25    13    14    1
    26    13    15    2
    27    13    16    2
    28     6     7   ar
    29     7     8   ar
    30     8    17    1
    31    17    18    1
    32    18    19    1
    33    24    25    1
    34    25    26    1
    35    36    29   ar
    36    26    21    1
    37     8     2   ar
    38    19    17    1
    39    11    12    1
@<TRIPOS>MOLECULE
*****
 36 39 0 0 0
SMALL
GASTEIGER

@<TRIPOS>ATOM
      1 O          63.1690   90.3862   14.1516 O.3     1  UNL1       -0.4757
      2 C          64.0158   91.2521   13.2666 C.ar    1  UNL1        0.1367
      3 C          65.0488   92.1574   13.8695 C.ar    1  UNL1        0.0663
      4 C          65.8955   93.0233   12.9845 C.ar    1  UNL1        0.1475
      5 F          66.9285   93.9285   13.5874 F       1  UNL1       -0.2039
      6 C          65.7093   92.9839   11.4966 C.ar    1  UNL1        0.0821
      7 C          64.6763   92.0786   10.8938 C.ar    1  UNL1        0.0055
      8 C          63.8296   91.2127   11.7788 C.ar    1  UNL1        0.0117
      9 C          66.5560   93.8498   10.6116 C.2     1  UNL1        0.2662
     10 O          67.9925   93.4938   10.3665 O.2     1  UNL1       -0.2685
     11 N          65.9664   95.0716    9.9717 N.am    1  UNL1       -0.1851
     12 H          65.0237   95.3052   10.1326 H       1  UNL1        0.1765
     13 S          66.8132   95.9375    9.0867 S.O2    1  UNL1        0.0581
     14 C          67.6600   96.8033    8.2017 C.3     1  UNL1        0.1997
     15 O          66.5443   95.0195    7.9313 O.2     1  UNL1       -0.1543
     16 O          67.0821   96.8555   10.2421 O.2     1  UNL1       -0.1543
     17 C          62.7965   90.3074   11.1759 C.3     1  UNL1        0.0253
     18 C          61.6332   90.0974   10.2526 C.3     1  UNL1        0.0048
     19 C          62.1707   88.9496   11.0549 C.3     1  UNL1        0.0048
     20 C          63.8048   89.5915   15.2535 C.3     1  UNL1        0.2054
     21 N          63.9688   85.1026   14.9843 N.3     1  UNL1       -0.2703
     22 C          63.5713   85.7627   16.2712 C.3     1  UNL1        0.0724
     23 C          63.5167   87.2590   16.3609 C.3     1  UNL1        0.0211
     24 C          63.8594   88.0952   15.1638 C.3     1  UNL1        0.0465
     25 C          64.2569   87.4351   13.8768 C.3     1  UNL1        0.0211
     26 C          64.3116   85.9387   13.7870 C.3     1  UNL1        0.0724
     27 C          64.3736   82.7945   16.1063 C.3     1  UNL1        0.0222
     28 C          64.0235   83.6062   14.8945 C.3     1  UNL1        0.0802
     29 C          63.7280   82.9217   13.5929 C.ar    1  UNL1       -0.0061
     30 C          63.9211   83.6552   12.2989 C.ar    1  UNL1        0.0085
     31 C          63.6256   82.9707   10.9974 C.ar    1  UNL1        0.0582
     32 CL         63.8188   83.7042    9.7033 Cl      1  UNL1       -0.0822
     33 C          63.1369   81.5525   10.9899 C.ar    1  UNL1        0.0228
     34 C          62.9438   80.8189   12.2839 C.ar    1  UNL1        0.0582
     35 CL         62.4551   79.4008   12.2764 Cl      1  UNL1       -0.0822
     36 C          63.2393   81.5035   13.5854 C.ar    1  UNL1        0.0085
@<TRIPOS>BOND
     1    28    27    1
     2    28    29    1
     3    29    30   ar
     4    30    31   ar
     5    31    32    1
     6    31    33   ar
     7    33    34   ar
     8    34    35    1
     9    34    36   ar
    10    28    21    1
    11    21    22    1
    12    22    23    1
    13    23    24    1
    14    24    20    1
    15    20     1    1
    16     1     2    1
    17     2     3   ar
    18     3     4   ar
    19     4     5    1
    20     4     6   ar
    21     6     9    1
    22     9    10    2
    23     9    11   am
    24    11    13    1
    25    13    14    1
    26    13    15    2
    27    13    16    2
    28     6     7   ar
    29     7     8   ar
    30     8    17    1
    31    17    18    1
    32    18    19    1
    33    24    25    1
    34    25    26    1
    35    36    29   ar
    36    26    21    1
    37     8     2   ar
    38    19    17    1
    39    11    12    1
@<TRIPOS>MOLECULE
*****
 36 39 0 0 0
SMALL
GASTEIGER

@<TRIPOS>ATOM
      1 O          63.3315   89.3238   14.6742 O.3     1  UNL1       -0.4757
      2 C          64.0656   90.3569   13.8718 C.ar    1  UNL1        0.1367
      3 C          65.3384   90.9507   14.3986 C.ar    1  UNL1        0.0663
      4 C          66.0724   91.9838   13.5962 C.ar    1  UNL1        0.1475
      5 F          67.3452   92.5776   14.1229 F       1  UNL1       -0.2039
      6 C          65.5337   92.4231   12.2669 C.ar    1  UNL1        0.0821
      7 C          64.2610   91.8293   11.7401 C.ar    1  UNL1        0.0055
      8 C          63.5269   90.7962   12.5426 C.ar    1  UNL1        0.0117
      9 C          66.2678   93.4562   11.4644 C.2     1  UNL1        0.2662
     10 O          67.6675   93.1874   10.9969 O.2     1  UNL1       -0.2685
     11 N          65.6021   94.7580   11.1296 N.am    1  UNL1       -0.1851
     12 H          64.6835   94.9344   11.4364 H       1  UNL1        0.1765
     13 S          66.3362   95.7910   10.3271 S.O2    1  UNL1        0.0581
     14 C          67.0702   96.8241    9.5247 C.3     1  UNL1        0.1997
     15 O          66.2877   96.7320   11.4943 O.2     1  UNL1       -0.1543
     16 O          66.3846   94.8501    9.1600 O.2     1  UNL1       -0.1543
     17 C          62.2541   90.2024   12.0157 C.3     1  UNL1        0.0253
     18 C          61.4936   89.5319   10.9104 C.3     1  UNL1        0.0048
     19 C          60.8103   89.8444   12.2086 C.3     1  UNL1        0.0048
     20 C          63.9797   88.0038   14.9697 C.3     1  UNL1        0.2054
     21 N          63.6262   84.6152   12.0300 N.3     1  UNL1       -0.2703
     22 C          64.3763   84.4190   13.3140 C.3     1  UNL1        0.0724
     23 C          64.4941   85.5485   14.2940 C.3     1  UNL1        0.0211
     24 C          63.8619   86.8743   13.9898 C.3     1  UNL1        0.0465
     25 C          63.1117   87.0706   12.7057 C.3     1  UNL1        0.0211
     26 C          62.9939   85.9410   11.7258 C.3     1  UNL1        0.0724
     27 C          63.8549   83.7051    9.6073 C.3     1  UNL1        0.0222
     28 C          63.5083   83.4856   11.0501 C.3     1  UNL1        0.0802
     29 C          63.0438   82.1365   11.5130 C.ar    1  UNL1       -0.0061
     30 C          62.3903   81.9881   12.8550 C.ar    1  UNL1        0.0085
     31 C          61.9259   80.6390   13.3179 C.ar    1  UNL1        0.0582
     32 CL         61.2724   80.4905   14.6599 Cl      1  UNL1       -0.0822
     33 C          62.1149   79.4384   12.4388 C.ar    1  UNL1        0.0228
     34 C          62.7684   79.5868   11.0968 C.ar    1  UNL1        0.0582
     35 CL         62.9574   78.3862   10.2177 Cl      1  UNL1       -0.0822
     36 C          63.2328   80.9359   10.6340 C.ar    1  UNL1        0.0085
@<TRIPOS>BOND
     1    28    27    1
     2    28    29    1
     3    29    30   ar
     4    30    31   ar
     5    31    32    1
     6    31    33   ar
     7    33    34   ar
     8    34    35    1
     9    34    36   ar
    10    28    21    1
    11    21    22    1
    12    22    23    1
    13    23    24    1
    14    24    20    1
    15    20     1    1
    16     1     2    1
    17     2     3   ar
    18     3     4   ar
    19     4     5    1
    20     4     6   ar
    21     6     9    1
    22     9    10    2
    23     9    11   am
    24    11    13    1
    25    13    14    1
    26    13    15    2
    27    13    16    2
    28     6     7   ar
    29     7     8   ar
    30     8    17    1
    31    17    18    1
    32    18    19    1
    33    24    25    1
    34    25    26    1
    35    36    29   ar
    36    26    21    1
    37     8     2   ar
    38    19    17    1
    39    11    12    1
@<TRIPOS>MOLECULE
*****
 36 39 0 0 0
SMALL
GASTEIGER

@<TRIPOS>ATOM
      1 O          60.8510   88.8535    9.8229 O.3     1  UNL1       -0.4757
      2 C          61.4489   87.5886   10.3636 C.ar    1  UNL1        0.1367
      3 C          62.2969   87.6287   11.6003 C.ar    1  UNL1        0.0663
      4 C          62.8947   86.3637   12.1411 C.ar    1  UNL1        0.1475
      5 F          63.7427   86.4038   13.3777 F       1  UNL1       -0.2039
      6 C          62.6446   85.0586   11.4451 C.ar    1  UNL1        0.0821
      7 C          61.7967   85.0186   10.2085 C.ar    1  UNL1        0.0055
      8 C          61.1988   86.2836    9.6677 C.ar    1  UNL1        0.0117
      9 C          63.2425   83.7937   11.9859 C.2     1  UNL1        0.2662
     10 O          64.6114   83.3641   11.5480 O.2     1  UNL1       -0.2685
     11 N          62.4715   82.9583   12.9645 N.am    1  UNL1       -0.1851
     12 H          61.5731   83.2402   13.2519 H       1  UNL1        0.1765
     13 S          63.0694   81.6933   13.5052 S.O2    1  UNL1        0.0581
     14 C          63.6673   80.4284   14.0460 C.3     1  UNL1        0.1997
     15 O          63.5468   82.4371   14.7172 O.2     1  UNL1       -0.1543
     16 O          62.5920   80.9496   12.2933 O.2     1  UNL1       -0.1543
     17 C          60.3508   86.2434    8.4310 C.3     1  UNL1        0.0253
     18 C          59.1288   86.6808    7.6791 C.3     1  UNL1        0.0048
     19 C          60.1041   85.7366    7.0410 C.3     1  UNL1        0.0048
     20 C          60.9312   90.1216   10.6201 C.3     1  UNL1        0.2054
     21 N          64.9419   91.8008   11.7794 N.3     1  UNL1       -0.2703
     22 C          64.1192   91.0581   12.7901 C.3     1  UNL1        0.0724
     23 C          62.7823   90.4984   12.4037 C.3     1  UNL1        0.0211
     24 C          62.2681   90.6813   11.0065 C.3     1  UNL1        0.0465
     25 C          63.0908   91.4240    9.9957 C.3     1  UNL1        0.0211
     26 C          64.4277   91.9837   10.3822 C.3     1  UNL1        0.0724
     27 C          67.2712   92.7330   11.1045 C.3     1  UNL1        0.0222
     28 C          66.2789   92.3605   12.1658 C.3     1  UNL1        0.0802
     29 C          66.6234   92.5478   13.6137 C.ar    1  UNL1       -0.0061
     30 C          68.0096   92.9649   14.0069 C.ar    1  UNL1        0.0085
     31 C          68.3541   93.1521   15.4547 C.ar    1  UNL1        0.0582
     32 CL         69.7402   93.5692   15.8480 Cl      1  UNL1       -0.0822
     33 C          67.3125   92.9222   16.5094 C.ar    1  UNL1        0.0228
     34 C          65.9264   92.5050   16.1162 C.ar    1  UNL1        0.0582
     35 CL         64.8848   92.2751   17.1708 Cl      1  UNL1       -0.0822
     36 C          65.5818   92.3178   14.6683 C.ar    1  UNL1        0.0085
@<TRIPOS>BOND
     1    28    27    1
     2    28    29    1
     3    29    30   ar
     4    30    31   ar
     5    31    32    1
     6    31    33   ar
     7    33    34   ar
     8    34    35    1
     9    34    36   ar
    10    28    21    1
    11    21    22    1
    12    22    23    1
    13    23    24    1
    14    24    20    1
    15    20     1    1
    16     1     2    1
    17     2     3   ar
    18     3     4   ar
    19     4     5    1
    20     4     6   ar
    21     6     9    1
    22     9    10    2
    23     9    11   am
    24    11    13    1
    25    13    14    1
    26    13    15    2
    27    13    16    2
    28     6     7   ar
    29     7     8   ar
    30     8    17    1
    31    17    18    1
    32    18    19    1
    33    24    25    1
    34    25    26    1
    35    36    29   ar
    36    26    21    1
    37     8     2   ar
    38    19    17    1
    39    11    12    1
@<TRIPOS>MOLECULE
*****
 36 39 0 0 0
SMALL
GASTEIGER

@<TRIPOS>ATOM
      1 O          63.4986   89.5722   15.0555 O.3     1  UNL1       -0.4757
      2 C          64.1734   90.6216   14.2227 C.ar    1  UNL1        0.1367
      3 C          65.2656   91.4617   14.8155 C.ar    1  UNL1        0.0663
      4 C          65.9404   92.5111   13.9828 C.ar    1  UNL1        0.1475
      5 F          67.0325   93.3512   14.5755 F       1  UNL1       -0.2039
      6 C          65.5232   92.7202   12.5572 C.ar    1  UNL1        0.0821
      7 C          64.4311   91.8800   11.9644 C.ar    1  UNL1        0.0055
      8 C          63.7562   90.8307   12.7972 C.ar    1  UNL1        0.0117
      9 C          66.1980   93.7695   11.7244 C.2     1  UNL1        0.2662
     10 O          66.4662   95.1276   12.3021 O.2     1  UNL1       -0.2685
     11 N          66.6047   93.4608   10.3140 N.am    1  UNL1       -0.1851
     12 H          66.4286   92.5694    9.9349 H       1  UNL1        0.1765
     13 S          67.2795   94.5101    9.4813 S.O2    1  UNL1        0.0581
     14 C          67.9544   95.5594    8.6485 C.3     1  UNL1        0.1997
     15 O          65.9581   95.1847    9.2605 O.2     1  UNL1       -0.1543
     16 O          68.6009   93.8355    9.7021 O.2     1  UNL1       -0.1543
     17 C          62.6640   89.9905   12.2044 C.3     1  UNL1        0.0253
     18 C          62.2214   88.7373   11.5091 C.3     1  UNL1        0.0048
     19 C          61.2151   89.7885   11.8729 C.3     1  UNL1        0.0048
     20 C          64.2803   88.3933   15.5544 C.3     1  UNL1        0.2054
     21 N          63.0590   84.2241   14.3814 N.3     1  UNL1       -0.2703
     22 C          63.0269   84.6374   15.8229 C.3     1  UNL1        0.0724
     23 C          63.4340   86.0272   16.2139 C.3     1  UNL1        0.0211
     24 C          63.8732   87.0036   15.1634 C.3     1  UNL1        0.0465
     25 C          63.9053   86.5903   13.7218 C.3     1  UNL1        0.0211
     26 C          63.4982   85.2006   13.3307 C.3     1  UNL1        0.0724
     27 C          61.9807   81.9401   14.9902 C.3     1  UNL1        0.0222
     28 C          62.6519   82.8344   13.9903 C.3     1  UNL1        0.0802
     29 C          62.9159   82.3389   12.5993 C.ar    1  UNL1       -0.0061
     30 C          63.3525   83.2980   11.5318 C.ar    1  UNL1        0.0085
     31 C          63.6165   82.8025   10.1409 C.ar    1  UNL1        0.0582
     32 CL         64.0532   83.7615    9.0733 Cl      1  UNL1       -0.0822
     33 C          63.4439   81.3480    9.8174 C.ar    1  UNL1        0.0228
     34 C          63.0073   80.3889   10.8849 C.ar    1  UNL1        0.0582
     35 CL         62.8347   78.9344   10.5615 Cl      1  UNL1       -0.0822
     36 C          62.7433   80.8844   12.2759 C.ar    1  UNL1        0.0085
@<TRIPOS>BOND
     1    28    27    1
     2    28    29    1
     3    29    30   ar
     4    30    31   ar
     5    31    32    1
     6    31    33   ar
     7    33    34   ar
     8    34    35    1
     9    34    36   ar
    10    28    21    1
    11    21    22    1
    12    22    23    1
    13    23    24    1
    14    24    20    1
    15    20     1    1
    16     1     2    1
    17     2     3   ar
    18     3     4   ar
    19     4     5    1
    20     4     6   ar
    21     6     9    1
    22     9    10    2
    23     9    11   am
    24    11    13    1
    25    13    14    1
    26    13    15    2
    27    13    16    2
    28     6     7   ar
    29     7     8   ar
    30     8    17    1
    31    17    18    1
    32    18    19    1
    33    24    25    1
    34    25    26    1
    35    36    29   ar
    36    26    21    1
    37     8     2   ar
    38    19    17    1
    39    11    12    1
@<TRIPOS>MOLECULE
*****
 36 39 0 0 0
SMALL
GASTEIGER

@<TRIPOS>ATOM
      1 O          65.6468   90.5737   14.8396 O.3     1  UNL1       -0.4757
      2 C          65.7485   91.6304   13.7799 C.ar    1  UNL1        0.1367
      3 C          64.9005   91.5392   12.5459 C.ar    1  UNL1        0.0663
      4 C          65.0021   92.5959   11.4862 C.ar    1  UNL1        0.1475
      5 F          64.1542   92.5048   10.2523 F       1  UNL1       -0.2039
      6 C          65.9518   93.7439   11.6605 C.ar    1  UNL1        0.0821
      7 C          66.7998   93.8351   12.8944 C.ar    1  UNL1        0.0055
      8 C          66.6981   92.7783   13.9541 C.ar    1  UNL1        0.0117
      9 C          66.0535   94.8007   10.6008 C.2     1  UNL1        0.2662
     10 O          65.0875   95.9482   10.5908 O.2     1  UNL1       -0.2685
     11 N          67.1212   94.7100    9.5512 N.am    1  UNL1       -0.1851
     12 H          67.7552   93.9568    9.5577 H       1  UNL1        0.1765
     13 S          67.2229   95.7667    8.4915 S.O2    1  UNL1        0.0581
     14 C          67.3246   96.8235    7.4318 C.3     1  UNL1        0.1997
     15 O          67.3870   94.7031    7.4466 O.2     1  UNL1       -0.1543
     16 O          67.0587   96.8303    9.5364 O.2     1  UNL1       -0.1543
     17 C          67.5461   92.8696   15.1881 C.3     1  UNL1        0.0253
     18 C          68.3551   93.6873   16.1508 C.3     1  UNL1        0.0048
     19 C          68.2058   92.2099   16.3627 C.3     1  UNL1        0.0048
     20 C          64.3007   90.0761   15.2759 C.3     1  UNL1        0.2054
     21 N          63.3150   85.6957   14.9754 N.3     1  UNL1       -0.2703
     22 C          63.1010   86.4256   16.2682 C.3     1  UNL1        0.0724
     23 C          63.4296   87.8858   16.3683 C.3     1  UNL1        0.0211
     24 C          63.9721   88.6160   15.1757 C.3     1  UNL1        0.0465
     25 C          64.1861   87.8861   13.8828 C.3     1  UNL1        0.0211
     26 C          63.8575   86.4259   13.7826 C.3     1  UNL1        0.0724
     27 C          62.6221   83.4625   16.1079 C.3     1  UNL1        0.0222
     28 C          62.9865   84.2356   14.8752 C.3     1  UNL1        0.0802
     29 C          63.0223   83.5485   13.5422 C.ar    1  UNL1       -0.0061
     30 C          63.2486   84.3469   12.2928 C.ar    1  UNL1        0.0085
     31 C          63.2845   83.6598   10.9599 C.ar    1  UNL1        0.0582
     32 CL         63.5108   84.4582    9.7103 Cl      1  UNL1       -0.0822
     33 C          63.0939   82.1743   10.8765 C.ar    1  UNL1        0.0228
     34 C          62.8675   81.3759   12.1260 C.ar    1  UNL1        0.0582
     35 CL         62.6769   79.8904   12.0426 Cl      1  UNL1       -0.0822
     36 C          62.8317   82.0630   13.4588 C.ar    1  UNL1        0.0085
@<TRIPOS>BOND
     1    28    27    1
     2    28    29    1
     3    29    30   ar
     4    30    31   ar
     5    31    32    1
     6    31    33   ar
     7    33    34   ar
     8    34    35    1
     9    34    36   ar
    10    28    21    1
    11    21    22    1
    12    22    23    1
    13    23    24    1
    14    24    20    1
    15    20     1    1
    16     1     2    1
    17     2     3   ar
    18     3     4   ar
    19     4     5    1
    20     4     6   ar
    21     6     9    1
    22     9    10    2
    23     9    11   am
    24    11    13    1
    25    13    14    1
    26    13    15    2
    27    13    16    2
    28     6     7   ar
    29     7     8   ar
    30     8    17    1
    31    17    18    1
    32    18    19    1
    33    24    25    1
    34    25    26    1
    35    36    29   ar
    36    26    21    1
    37     8     2   ar
    38    19    17    1
    39    11    12    1
@<TRIPOS>MOLECULE
*****
 36 39 0 0 0
SMALL
GASTEIGER

@<TRIPOS>ATOM
      1 O          63.6124   91.6445   14.0215 O.3     1  UNL1       -0.4757
      2 C          62.9714   90.9210   12.8744 C.ar    1  UNL1        0.1367
      3 C          61.7634   90.0633   13.1096 C.ar    1  UNL1        0.0663
      4 C          61.1225   89.3398   11.9626 C.ar    1  UNL1        0.1475
      5 F          59.9146   88.4822   12.1977 F       1  UNL1       -0.2039
      6 C          61.6895   89.4741   10.5803 C.ar    1  UNL1        0.0821
      7 C          62.8974   90.3317   10.3451 C.ar    1  UNL1        0.0055
      8 C          63.5383   91.0552   11.4922 C.ar    1  UNL1        0.0117
      9 C          61.0485   88.7506    9.4332 C.2     1  UNL1        0.2662
     10 O          60.4378   89.5267    8.3042 O.2     1  UNL1       -0.2685
     11 N          61.0182   87.2510    9.4152 N.am    1  UNL1       -0.1851
     12 H          61.4190   86.7416   10.1562 H       1  UNL1        0.1765
     13 S          60.3772   86.5275    8.2682 S.O2    1  UNL1        0.0581
     14 C          59.7363   85.8041    7.1211 C.3     1  UNL1        0.1997
     15 O          61.7225   86.0280    7.8315 O.2     1  UNL1       -0.1543
     16 O          59.0319   87.0271    8.7048 O.2     1  UNL1       -0.1543
     17 C          64.7463   91.9129   11.2570 C.3     1  UNL1        0.0253
     18 C          65.4934   92.9004   10.4105 C.3     1  UNL1        0.0048
     19 C          66.0913   92.4109   11.6961 C.3     1  UNL1        0.0048
     20 C          64.2608   90.8686   15.1293 C.3     1  UNL1        0.2054
     21 N          63.4246   86.4704   15.5846 N.3     1  UNL1       -0.2703
     22 C          64.2316   86.9639   14.4205 C.3     1  UNL1        0.0724
     23 C          64.5103   88.4299   14.2687 C.3     1  UNL1        0.0211
     24 C          63.9821   89.4025   15.2811 C.3     1  UNL1        0.0465
     25 C          63.1751   88.9091   16.4453 C.3     1  UNL1        0.0211
     26 C          62.8964   87.4431   16.5971 C.3     1  UNL1        0.0724
     27 C          63.0432   84.3982   17.1046 C.3     1  UNL1        0.0222
     28 C          63.1459   85.0044   15.7364 C.3     1  UNL1        0.0802
     29 C          62.9699   84.1445   14.5199 C.ar    1  UNL1       -0.0061
     30 C          62.6384   82.6895   14.6715 C.ar    1  UNL1        0.0085
     31 C          62.4625   81.8298   13.4551 C.ar    1  UNL1        0.0582
     32 CL         62.1310   80.3747   13.6066 Cl      1  UNL1       -0.0822
     33 C          62.6179   82.4250   12.0870 C.ar    1  UNL1        0.0228
     34 C          62.9494   83.8800   11.9354 C.ar    1  UNL1        0.0582
     35 CL         63.1049   84.4753   10.5674 Cl      1  UNL1       -0.0822
     36 C          63.1254   84.7398   13.1519 C.ar    1  UNL1        0.0085
@<TRIPOS>BOND
     1    28    27    1
     2    28    29    1
     3    29    30   ar
     4    30    31   ar
     5    31    32    1
     6    31    33   ar
     7    33    34   ar
     8    34    35    1
     9    34    36   ar
    10    28    21    1
    11    21    22    1
    12    22    23    1
    13    23    24    1
    14    24    20    1
    15    20     1    1
    16     1     2    1
    17     2     3   ar
    18     3     4   ar
    19     4     5    1
    20     4     6   ar
    21     6     9    1
    22     9    10    2
    23     9    11   am
    24    11    13    1
    25    13    14    1
    26    13    15    2
    27    13    16    2
    28     6     7   ar
    29     7     8   ar
    30     8    17    1
    31    17    18    1
    32    18    19    1
    33    24    25    1
    34    25    26    1
    35    36    29   ar
    36    26    21    1
    37     8     2   ar
    38    19    17    1
    39    11    12    1
