@<TRIPOS>MOLECULE
*****
 35 38 0 0 0
SMALL
GASTEIGER

@<TRIPOS>ATOM
      1 C          65.2962   91.7354   13.5667 C.ar    1  UNL1       -0.0044
      2 C          65.5948   90.7388   14.6473 C.ar    1  UNL1       -0.0014
      3 C          65.0139   89.3578   14.5751 C.ar    1  UNL1        0.0144
      4 C          64.1343   88.9734   13.4225 C.ar    1  UNL1        0.0516
      5 C          63.8357   89.9700   12.3419 C.ar    1  UNL1        0.0144
      6 C          64.4167   91.3510   12.4141 C.ar    1  UNL1       -0.0014
      7 N          63.5533   87.5923   13.3504 N.am    1  UNL1       -0.2681
      8 C          64.1948   86.4683   14.1087 C.2     1  UNL1        0.3077
      9 O          65.4173   86.7253   14.9391 O.2     1  UNL1       -0.2522
     10 N          63.6138   85.0872   14.0366 N.am    1  UNL1       -0.2632
     11 C          63.9640   83.7568   14.6341 C.3     1  UNL1        0.1010
     12 C          62.7922   83.1341   13.9345 C.3     1  UNL1        0.0636
     13 C          62.4421   84.4647   13.3370 C.3     1  UNL1        0.1010
     14 H          62.7510   87.4236   12.8053 H       1  UNL1        0.1564
     15 C          62.2112   81.7531   13.8624 C.ar    1  UNL1        0.0012
     16 C          63.0605   80.6053   13.4031 C.ar    1  UNL1        0.0948
     17 N          62.4796   79.2242   13.3309 N.ar    1  UNL1       -0.2414
     18 C          61.0493   78.9910   13.7181 C.ar    1  UNL1        0.1129
     19 C          60.2000   80.1390   14.1775 C.ar    1  UNL1        0.0607
     20 N          58.7697   79.9058   14.5647 N.pl3   1  UNL1       -0.3558
     21 C          60.7809   81.5200   14.2496 C.ar    1  UNL1        0.0130
     22 H          58.3884   78.9994   14.5174 H       1  UNL1        0.1424
     23 H          58.2123   80.6592   14.8662 H       1  UNL1        0.1424
     24 C          66.4900   93.6066   14.9172 C.3     1  UNL1        0.0262
     25 C          65.8772   93.1165   13.6388 C.3     1  UNL1        0.0942
     26 N          65.8453   94.0075   12.4325 N.am    1  UNL1       -0.3011
     27 C          66.8176   93.7874   11.3117 C.2     1  UNL1        0.2372
     28 O          67.8219   92.6764   11.3973 O.2     1  UNL1       -0.2736
     29 H          65.1863   94.7367   12.3764 H       1  UNL1        0.1497
     30 C          66.7858   94.6784   10.1054 C.3     1  UNL1        0.1348
     31 C          67.2575   94.3154    8.7286 C.3     1  UNL1        0.0267
     32 C          67.0399   95.5014    7.8363 C.3     1  UNL1        0.0192
     33 C          66.4337   96.5974    8.6618 C.3     1  UNL1        0.0726
     34 N          66.2767   96.0887   10.0641 N.3     1  UNL1       -0.2653
     35 C          65.7100   96.8558   11.2219 C.3     1  UNL1        0.0900
@<TRIPOS>BOND
     1    25    24    1
     2    25    26    1
     3    26    27   am
     4    27    28    2
     5    30    27    1
     6    30    31    1
     7    31    32    1
     8    32    33    1
     9    33    34    1
    10    34    35    1
    11    25     1    1
    12     1     2   ar
    13     2     3   ar
    14     3     4   ar
    15     4     7    1
    16     7     8   am
    17     8     9    2
    18     8    10   am
    19    10    11    1
    20    11    12    1
    21    12    15    1
    22    15    16   ar
    23    16    17   ar
    24    17    18   ar
    25    18    19   ar
    26    19    20    1
    27    19    21   ar
    28    12    13    1
    29     4     5   ar
    30     5     6   ar
    31    34    30    1
    32     6     1   ar
    33    13    10    1
    34    21    15   ar
    35    26    29    1
    36     7    14    1
    37    20    22    1
    38    20    23    1
@<TRIPOS>MOLECULE
*****
 35 38 0 0 0
SMALL
GASTEIGER

@<TRIPOS>ATOM
      1 C          60.0294   91.2418    4.7469 C.ar    1  UNL1       -0.0044
      2 C          61.4415   90.8254    4.4598 C.ar    1  UNL1       -0.0014
      3 C          62.1718   91.4093    3.2870 C.ar    1  UNL1        0.0144
      4 C          61.4900   92.4096    2.4012 C.ar    1  UNL1        0.0516
      5 C          60.0779   92.8260    2.6883 C.ar    1  UNL1        0.0144
      6 C          59.3476   92.2421    3.8612 C.ar    1  UNL1       -0.0014
      7 N          62.2204   92.9935    1.2283 N.am    1  UNL1       -0.2681
      8 C          61.6761   92.8162   -0.1581 C.2     1  UNL1        0.3077
      9 O          60.4013   92.0550   -0.3717 O.2     1  UNL1       -0.2522
     10 N          62.4065   93.4001   -1.3310 N.am    1  UNL1       -0.2632
     11 C          62.1803   93.4299   -2.8135 C.3     1  UNL1        0.1010
     12 C          63.4395   94.2259   -2.9897 C.3     1  UNL1        0.0636
     13 C          63.6656   94.1961   -1.5071 C.3     1  UNL1        0.1010
     14 H          63.0571   93.4931    1.3685 H       1  UNL1        0.1564
     15 C          64.1699   94.8098   -4.1625 C.ar    1  UNL1        0.0012
     16 C          64.0072   96.2622   -4.4999 C.ar    1  UNL1        0.0948
     17 N          64.7376   96.8462   -5.6727 N.ar    1  UNL1       -0.2414
     18 C          65.6307   95.9776   -6.5082 C.ar    1  UNL1        0.1129
     19 C          65.7933   94.5251   -6.1708 C.ar    1  UNL1        0.0607
     20 N          66.6864   93.6565   -7.0062 N.pl3   1  UNL1       -0.3558
     21 C          65.0629   93.9412   -4.9979 C.ar    1  UNL1        0.0130
     22 H          67.1658   94.0398   -7.7760 H       1  UNL1        0.1424
     23 H          66.7932   92.7032   -6.7848 H       1  UNL1        0.1424
     24 C          57.7995   90.6203    5.9265 C.3     1  UNL1        0.0262
     25 C          59.2990   90.6579    5.9198 C.3     1  UNL1        0.0942
     26 N          60.0681   90.1117    7.0861 N.am    1  UNL1       -0.3011
     27 C          59.6346   88.8319    7.7372 C.2     1  UNL1        0.2372
     28 O          58.4318   88.0982    7.2222 O.2     1  UNL1       -0.2736
     29 H          60.8575   90.5932    7.4241 H       1  UNL1        0.1497
     30 C          60.4038   88.2857    8.9034 C.3     1  UNL1        0.1348
     31 C          61.1226   86.9699    8.9471 C.3     1  UNL1        0.0267
     32 C          61.7522   86.8303   10.3014 C.3     1  UNL1        0.0192
     33 C          61.4226   88.0599   11.0947 C.3     1  UNL1        0.0726
     34 N          60.5892   88.9594   10.2307 N.3     1  UNL1       -0.2653
     35 C          60.0380   90.2976   10.6249 C.3     1  UNL1        0.0900
@<TRIPOS>BOND
     1    25    24    1
     2    25    26    1
     3    26    27   am
     4    27    28    2
     5    30    27    1
     6    30    31    1
     7    31    32    1
     8    32    33    1
     9    33    34    1
    10    34    35    1
    11    25     1    1
    12     1     2   ar
    13     2     3   ar
    14     3     4   ar
    15     4     7    1
    16     7     8   am
    17     8     9    2
    18     8    10   am
    19    10    11    1
    20    11    12    1
    21    12    15    1
    22    15    16   ar
    23    16    17   ar
    24    17    18   ar
    25    18    19   ar
    26    19    20    1
    27    19    21   ar
    28    12    13    1
    29     4     5   ar
    30     5     6   ar
    31    34    30    1
    32     6     1   ar
    33    13    10    1
    34    21    15   ar
    35    26    29    1
    36     7    14    1
    37    20    22    1
    38    20    23    1
@<TRIPOS>MOLECULE
*****
 35 38 0 0 0
SMALL
GASTEIGER

@<TRIPOS>ATOM
      1 C          60.1214   88.1841    9.2275 C.ar    1  UNL1       -0.0044
      2 C          60.4286   89.6521    9.2012 C.ar    1  UNL1       -0.0014
      3 C          60.1556   90.4533    7.9629 C.ar    1  UNL1        0.0144
      4 C          59.5754   89.7866    6.7509 C.ar    1  UNL1        0.0516
      5 C          59.2682   88.3187    6.7773 C.ar    1  UNL1        0.0144
      6 C          59.5412   87.5174    8.0155 C.ar    1  UNL1       -0.0014
      7 N          59.3024   90.5880    5.5126 N.am    1  UNL1       -0.2681
      8 C          60.4395   91.2004    4.7498 C.2     1  UNL1        0.3077
      9 O          61.8496   91.0116    5.2252 O.2     1  UNL1       -0.2522
     10 N          60.1665   92.0018    3.5114 N.am    1  UNL1       -0.2632
     11 C          61.0132   92.7413    2.5185 C.3     1  UNL1        0.1010
     12 C          59.7803   93.1350    1.7602 C.3     1  UNL1        0.0636
     13 C          58.9336   92.3954    2.7532 C.3     1  UNL1        0.1010
     14 H          58.3770   90.7119    5.2006 H       1  UNL1        0.1564
     15 C          59.5073   93.9363    0.5219 C.ar    1  UNL1        0.0012
     16 C          59.5174   95.4350    0.5811 C.ar    1  UNL1        0.0948
     17 N          59.2444   96.2364   -0.6572 N.ar    1  UNL1       -0.2414
     18 C          58.9612   95.5389   -1.9546 C.ar    1  UNL1        0.1129
     19 C          58.9512   94.0401   -2.0138 C.ar    1  UNL1        0.0607
     20 N          58.6681   93.3426   -3.3112 N.pl3   1  UNL1       -0.3558
     21 C          59.2242   93.2388   -0.7755 C.ar    1  UNL1        0.0130
     22 H          58.4889   93.8685   -4.1239 H       1  UNL1        0.1424
     23 H          58.6615   92.3589   -3.3500 H       1  UNL1        0.1424
     24 C          59.9755   87.9084   11.8068 C.3     1  UNL1        0.0262
     25 C          60.3944   87.3828   10.4659 C.3     1  UNL1        0.0942
     26 N          61.0863   86.0559   10.3632 N.am    1  UNL1       -0.3011
     27 C          62.2939   85.7724   11.2065 C.2     1  UNL1        0.2372
     28 O          62.8097   86.8160   12.1526 O.2     1  UNL1       -0.2736
     29 H          60.7478   85.3710    9.7422 H       1  UNL1        0.1497
     30 C          62.9858   84.4455   11.1038 C.3     1  UNL1        0.1348
     31 C          63.6180   83.8740    9.8694 C.3     1  UNL1        0.0267
     32 C          64.1899   82.5324   10.2201 C.3     1  UNL1        0.0192
     33 C          63.9112   82.2747   11.6713 C.3     1  UNL1        0.0726
     34 N          63.1671   83.4571   12.2174 N.3     1  UNL1       -0.2653
     35 C          62.6882   83.6221   13.6293 C.3     1  UNL1        0.0900
@<TRIPOS>BOND
     1    25    24    1
     2    25    26    1
     3    26    27   am
     4    27    28    2
     5    30    27    1
     6    30    31    1
     7    31    32    1
     8    32    33    1
     9    33    34    1
    10    34    35    1
    11    25     1    1
    12     1     2   ar
    13     2     3   ar
    14     3     4   ar
    15     4     7    1
    16     7     8   am
    17     8     9    2
    18     8    10   am
    19    10    11    1
    20    11    12    1
    21    12    15    1
    22    15    16   ar
    23    16    17   ar
    24    17    18   ar
    25    18    19   ar
    26    19    20    1
    27    19    21   ar
    28    12    13    1
    29     4     5   ar
    30     5     6   ar
    31    34    30    1
    32     6     1   ar
    33    13    10    1
    34    21    15   ar
    35    26    29    1
    36     7    14    1
    37    20    22    1
    38    20    23    1
@<TRIPOS>MOLECULE
*****
 35 38 0 0 0
SMALL
GASTEIGER

@<TRIPOS>ATOM
      1 C          58.7818   90.3961    5.8671 C.ar    1  UNL1       -0.0044
      2 C          60.0382   90.8340    6.5596 C.ar    1  UNL1       -0.0014
      3 C          60.5907   90.0232    7.6942 C.ar    1  UNL1        0.0144
      4 C          59.8868   88.7746    8.1363 C.ar    1  UNL1        0.0516
      5 C          58.6304   88.3367    7.4437 C.ar    1  UNL1        0.0144
      6 C          58.0779   89.1474    6.3091 C.ar    1  UNL1       -0.0014
      7 N          60.4394   87.9638    9.2709 N.am    1  UNL1       -0.2681
      8 C          61.1831   86.6916    8.9912 C.2     1  UNL1        0.3077
      9 O          61.3743   86.2301    7.5768 O.2     1  UNL1       -0.2522
     10 N          61.7357   85.8809   10.1259 N.am    1  UNL1       -0.2632
     11 C          62.5081   84.5999   10.2366 C.3     1  UNL1        0.1010
     12 C          62.5171   84.7344   11.7306 C.3     1  UNL1        0.0636
     13 C          61.7447   86.0155   11.6198 C.3     1  UNL1        0.1010
     14 H          60.3139   88.2667   10.1992 H       1  UNL1        0.1564
     15 C          63.0697   83.9237   12.8652 C.ar    1  UNL1        0.0012
     16 C          63.9594   84.5701   13.8852 C.ar    1  UNL1        0.0948
     17 N          64.5120   83.7595   15.0199 N.ar    1  UNL1       -0.2414
     18 C          64.1748   82.3023   15.1346 C.ar    1  UNL1        0.1129
     19 C          63.2851   81.6559   14.1144 C.ar    1  UNL1        0.0607
     20 N          62.9479   80.1988   14.2291 N.pl3   1  UNL1       -0.3558
     21 C          62.7325   82.4666   12.9798 C.ar    1  UNL1        0.0130
     22 H          63.3106   79.6667   14.9738 H       1  UNL1        0.1424
     23 H          62.3640   79.7745   13.5595 H       1  UNL1        0.1424
     24 C          56.8036   91.6719    4.7675 C.3     1  UNL1        0.0262
     25 C          58.2292   91.2068    4.7324 C.3     1  UNL1        0.0942
     26 N          59.1023   91.5525    3.5627 N.am    1  UNL1       -0.3011
     27 C          59.7193   92.9161    3.4644 C.2     1  UNL1        0.2372
     28 O          59.4633   93.9342    4.5359 O.2     1  UNL1       -0.2736
     29 H          59.2703   90.8843    2.8594 H       1  UNL1        0.1497
     30 C          60.5924   93.2617    2.2947 C.3     1  UNL1        0.1348
     31 C          60.2209   94.1595    1.1520 C.3     1  UNL1        0.0267
     32 C          61.3892   94.2229    0.2133 C.3     1  UNL1        0.0192
     33 C          62.4829   93.3643    0.7760 C.3     1  UNL1        0.0726
     34 N          61.9904   92.7702    2.0623 N.3     1  UNL1       -0.2653
     35 C          62.7608   91.8468    2.9588 C.3     1  UNL1        0.0900
@<TRIPOS>BOND
     1    25    24    1
     2    25    26    1
     3    26    27   am
     4    27    28    2
     5    30    27    1
     6    30    31    1
     7    31    32    1
     8    32    33    1
     9    33    34    1
    10    34    35    1
    11    25     1    1
    12     1     2   ar
    13     2     3   ar
    14     3     4   ar
    15     4     7    1
    16     7     8   am
    17     8     9    2
    18     8    10   am
    19    10    11    1
    20    11    12    1
    21    12    15    1
    22    15    16   ar
    23    16    17   ar
    24    17    18   ar
    25    18    19   ar
    26    19    20    1
    27    19    21   ar
    28    12    13    1
    29     4     5   ar
    30     5     6   ar
    31    34    30    1
    32     6     1   ar
    33    13    10    1
    34    21    15   ar
    35    26    29    1
    36     7    14    1
    37    20    22    1
    38    20    23    1
