@<TRIPOS>MOLECULE
*****
 42 46 0 0 0
SMALL
GASTEIGER

@<TRIPOS>ATOM
      1 C          64.0807   89.1525   14.2360 C.ar    1  UNL1        0.2218
      2 N          64.5043   88.1429   15.2612 N.ar    1  UNL1       -0.2119
      3 C          64.2436   86.6841   15.0296 C.ar    1  UNL1        0.1061
      4 C          63.5593   86.2348   13.7727 C.ar    1  UNL1        0.0683
      5 C          63.1357   87.2444   12.7475 C.ar    1  UNL1        0.1343
      6 N          63.3964   88.7033   12.9791 N.ar    1  UNL1       -0.1988
      7 C          63.2986   84.7759   13.5411 C.ar    1  UNL1        0.0854
      8 C          62.7854   83.9188   14.6600 C.ar    1  UNL1        0.0193
      9 C          62.5247   82.4599   14.4284 C.ar    1  UNL1        0.0030
     10 C          62.7771   81.8581   13.0778 C.ar    1  UNL1        0.0177
     11 C          62.5164   80.3992   12.8462 C.ar    1  UNL1        0.0015
     12 C          62.7689   79.7974   11.4956 C.ar    1  UNL1        0.0001
     13 C          63.2821   80.6545   10.3767 C.ar    1  UNL1        0.0015
     14 C          63.5428   82.1133   10.6083 C.ar    1  UNL1        0.0191
     15 C          63.2903   82.7151   11.9588 C.ar    1  UNL1        0.0813
     16 N          63.5511   84.1741   12.1905 N.ar    1  UNL1       -0.2452
     17 N          64.3414   90.6115   14.4676 N.pl3   1  UNL1       -0.2823
     18 H          63.7558   91.1269   15.0681 H       1  UNL1        0.1551
     19 C          66.4743   92.5292   11.7247 C.ar    1  UNL1        0.2260
     20 C          65.3212   91.8556   12.4079 C.ar    1  UNL1        0.0724
     21 C          65.4945   91.2850   13.7844 C.ar    1  UNL1        0.0567
     22 C          66.8207   91.3880   14.4775 C.ar    1  UNL1        0.0356
     23 C          67.9738   92.0615   13.7942 C.ar    1  UNL1        0.1033
     24 N          67.8006   92.6321   12.4179 N.ar    1  UNL1       -0.2101
     25 O          66.3011   93.0998   10.3484 O.3     1  UNL1       -0.4640
     26 C          67.7630   94.8506    9.1045 C.3     1  UNL1        0.0473
     27 C          67.5048   93.4318    9.5172 C.3     1  UNL1        0.1678
     28 C          68.4503   92.3451    9.0987 C.3     1  UNL1        0.0473
     29 N          62.4513   86.7951   11.4905 N.pl3   1  UNL1       -0.3172
     30 H          62.5768   85.8749   11.1637 H       1  UNL1        0.1482
     31 C          61.5759   87.7478   10.7316 C.3     1  UNL1        0.0998
     32 C          61.1800   87.6239    9.2901 C.3     1  UNL1        0.0271
     33 C          60.3021   88.7912    8.9485 C.3     1  UNL1        0.0604
     34 C          60.1554   89.6365   10.1788 C.3     1  UNL1        0.1412
     35 O          59.3609   90.9041   10.2881 O.3     1  UNL1       -0.3818
     36 C          60.9426   88.9917   11.2808 C.3     1  UNL1        0.1549
     37 O          61.0736   89.5013   12.6855 O.3     1  UNL1       -0.3803
     38 H          59.4310   91.2529   11.1905 H       1  UNL1        0.2104
     39 H          60.5666   90.3228   12.7800 H       1  UNL1        0.2105
     40 C          59.6801   89.0650    7.6112 C.3     1  UNL1        0.1396
     41 O          58.5093   88.2499    7.1477 O.3     1  UNL1       -0.3819
     42 H          58.7886   87.3310    7.0117 H       1  UNL1        0.2104
@<TRIPOS>BOND
     1    26    27    1
     2    27    28    1
     3    27    25    1
     4    25    19    1
     5    19    20   ar
     6    20    21   ar
     7    21    17    1
     8    17     1    1
     9     1     2   ar
    10     2     3   ar
    11     3     4   ar
    12     4     7    1
    13     7     8   ar
    14     8     9   ar
    15     9    10   ar
    16    10    11   ar
    17    11    12   ar
    18    12    13   ar
    19    13    14   ar
    20    14    15   ar
    21    15    16   ar
    22     4     5   ar
    23     5    29    1
    24    31    29    1
    25    31    32    1
    26    32    33    1
    27    33    40    1
    28    40    41    1
    29    33    34    1
    30    34    35    1
    31    34    36    1
    32    36    37    1
    33     5     6   ar
    34    21    22   ar
    35    22    23   ar
    36    23    24   ar
    37    24    19   ar
    38     6     1   ar
    39    16     7   ar
    40    36    31    1
    41    15    10   ar
    42    17    18    1
    43    29    30    1
    44    41    42    1
    45    35    38    1
    46    37    39    1
@<TRIPOS>MOLECULE
*****
 42 46 0 0 0
SMALL
GASTEIGER

@<TRIPOS>ATOM
      1 C          63.8910   90.4772   15.2058 C.ar    1  UNL1        0.2218
      2 N          65.1565   91.2466   15.4438 N.ar    1  UNL1       -0.2119
      3 C          65.8120   91.9807   14.3119 C.ar    1  UNL1        0.1061
      4 C          65.2021   91.9455   12.9420 C.ar    1  UNL1        0.0683
      5 C          63.9366   91.1761   12.7040 C.ar    1  UNL1        0.1343
      6 N          63.2811   90.4420   13.8360 N.ar    1  UNL1       -0.1988
      7 C          65.8576   92.6796   11.8100 C.ar    1  UNL1        0.0854
      8 C          67.0152   92.0600   11.0847 C.ar    1  UNL1        0.0193
      9 C          67.6707   92.7941    9.9527 C.ar    1  UNL1        0.0030
     10 C          67.1686   94.1478    9.5460 C.ar    1  UNL1        0.0177
     11 C          67.8241   94.8819    8.4140 C.ar    1  UNL1        0.0015
     12 C          67.3220   96.2356    8.0074 C.ar    1  UNL1        0.0001
     13 C          66.1644   96.8552    8.7326 C.ar    1  UNL1        0.0015
     14 C          65.5089   96.1211    9.8646 C.ar    1  UNL1        0.0191
     15 C          66.0110   94.7674   10.2713 C.ar    1  UNL1        0.0813
     16 N          65.3555   94.0333   11.4033 N.ar    1  UNL1       -0.2452
     17 N          63.2355   89.7431   16.3379 N.pl3   1  UNL1       -0.2823
     18 H          62.7624   90.2440   17.0411 H       1  UNL1        0.1551
     19 C          64.0375   85.9818   15.3581 C.ar    1  UNL1        0.2260
     20 C          63.9721   87.4792   15.2976 C.ar    1  UNL1        0.0724
     21 C          63.3009   88.2457   16.3984 C.ar    1  UNL1        0.0567
     22 C          62.6950   87.5149   17.5598 C.ar    1  UNL1        0.0356
     23 C          62.7604   86.0176   17.6204 C.ar    1  UNL1        0.1033
     24 N          63.4316   85.2510   16.5196 N.ar    1  UNL1       -0.2101
     25 O          64.7087   85.2153   14.2573 O.3     1  UNL1       -0.4640
     26 C          63.0372   85.1062   12.2714 C.3     1  UNL1        0.0473
     27 C          63.8868   84.4114   13.2939 C.3     1  UNL1        0.1678
     28 C          63.9143   82.9129   13.3530 C.3     1  UNL1        0.0473
     29 N          63.3266   91.1409   11.3340 N.pl3   1  UNL1       -0.3172
     30 H          63.4672   91.8918   10.7131 H       1  UNL1        0.1482
     31 C          62.5025   89.9614   10.9101 C.3     1  UNL1        0.0998
     32 C          62.9273   88.8870    9.9535 C.3     1  UNL1        0.0271
     33 C          61.7962   87.9109    9.8206 C.3     1  UNL1        0.0604
     34 C          60.6722   88.3820   10.6950 C.3     1  UNL1        0.1412
     35 O          59.3447   87.7048   10.8661 O.3     1  UNL1       -0.3818
     36 C          61.1087   89.6493   11.3684 C.3     1  UNL1        0.1549
     37 O          60.2944   90.4619   12.3310 O.3     1  UNL1       -0.3803
     38 H          58.7995   88.2139   11.4862 H       1  UNL1        0.2104
     39 H          59.4292   90.0419   12.4574 H       1  UNL1        0.2105
     40 C          61.7901   86.6798    8.9636 C.3     1  UNL1        0.1396
     41 O          60.5066   85.9436    8.7176 O.3     1  UNL1       -0.3819
     42 H          60.1872   85.5631    9.5507 H       1  UNL1        0.2104
@<TRIPOS>BOND
     1    26    27    1
     2    27    28    1
     3    27    25    1
     4    25    19    1
     5    19    20   ar
     6    20    21   ar
     7    21    17    1
     8    17     1    1
     9     1     2   ar
    10     2     3   ar
    11     3     4   ar
    12     4     7    1
    13     7     8   ar
    14     8     9   ar
    15     9    10   ar
    16    10    11   ar
    17    11    12   ar
    18    12    13   ar
    19    13    14   ar
    20    14    15   ar
    21    15    16   ar
    22     4     5   ar
    23     5    29    1
    24    31    29    1
    25    31    32    1
    26    32    33    1
    27    33    40    1
    28    40    41    1
    29    33    34    1
    30    34    35    1
    31    34    36    1
    32    36    37    1
    33     5     6   ar
    34    21    22   ar
    35    22    23   ar
    36    23    24   ar
    37    24    19   ar
    38     6     1   ar
    39    16     7   ar
    40    36    31    1
    41    15    10   ar
    42    17    18    1
    43    29    30    1
    44    41    42    1
    45    35    38    1
    46    37    39    1
@<TRIPOS>MOLECULE
*****
 42 46 0 0 0
SMALL
GASTEIGER

@<TRIPOS>ATOM
      1 C          63.5320   90.0728   14.0399 C.ar    1  UNL1        0.2218
      2 N          62.5418   90.7257   13.1216 N.ar    1  UNL1       -0.2119
      3 C          61.9622   89.9544   11.9731 C.ar    1  UNL1        0.1061
      4 C          62.3728   88.5301   11.7430 C.ar    1  UNL1        0.0683
      5 C          63.3629   87.8773   12.6614 C.ar    1  UNL1        0.1343
      6 N          63.9425   88.6486   13.8098 N.ar    1  UNL1       -0.1988
      7 C          61.7932   87.7587   10.5945 C.ar    1  UNL1        0.0854
      8 C          60.3346   87.8834   10.2673 C.ar    1  UNL1        0.0193
      9 C          59.7550   87.1120    9.1188 C.ar    1  UNL1        0.0030
     10 C          60.6339   86.2159    8.2975 C.ar    1  UNL1        0.0177
     11 C          60.0543   85.4446    7.1490 C.ar    1  UNL1        0.0015
     12 C          60.9332   84.5485    6.3278 C.ar    1  UNL1        0.0001
     13 C          62.3918   84.4238    6.6550 C.ar    1  UNL1        0.0015
     14 C          62.9714   85.1952    7.8034 C.ar    1  UNL1        0.0191
     15 C          62.0925   86.0912    8.6247 C.ar    1  UNL1        0.0813
     16 N          62.6721   86.8627    9.7732 N.ar    1  UNL1       -0.2452
     17 N          64.1116   90.8443   15.1885 N.pl3   1  UNL1       -0.2823
     18 H          63.6357   90.8768   16.0497 H       1  UNL1        0.1551
     19 C          67.4812   92.1799   13.5724 C.ar    1  UNL1        0.2260
     20 C          66.1766   91.4581   13.7362 C.ar    1  UNL1        0.0724
     21 C          65.4163   91.5661   15.0247 C.ar    1  UNL1        0.0567
     22 C          65.9606   92.3958   16.1495 C.ar    1  UNL1        0.0356
     23 C          67.2653   93.1176   15.9858 C.ar    1  UNL1        0.1033
     24 N          68.0256   93.0097   14.6973 N.ar    1  UNL1       -0.2101
     25 O          68.2416   92.0720   12.2840 O.3     1  UNL1       -0.4640
     26 C          68.2147   92.1053    9.6863 C.3     1  UNL1        0.0473
     27 C          67.6006   92.4992   10.9968 C.3     1  UNL1        0.1678
     28 C          66.3456   93.3203   11.0203 C.3     1  UNL1        0.0473
     29 N          63.7734   86.4529   12.4312 N.pl3   1  UNL1       -0.3172
     30 H          64.3633   86.2265   11.6762 H       1  UNL1        0.1482
     31 C          63.2851   85.3737   13.3514 C.3     1  UNL1        0.0998
     32 C          62.7337   84.0424   12.9346 C.3     1  UNL1        0.0271
     33 C          62.3703   83.2821   14.1755 C.3     1  UNL1        0.0604
     34 C          62.6970   84.1435   15.3593 C.3     1  UNL1        0.1412
     35 O          62.4941   83.7767   16.7995 O.3     1  UNL1       -0.3818
     36 C          63.2624   85.4361   14.8499 C.3     1  UNL1        0.1549
     37 O          63.7240   86.5889   15.6914 O.3     1  UNL1       -0.3803
     38 H          62.7865   84.5093   17.3640 H       1  UNL1        0.2104
     39 H          63.6020   86.3738   16.6293 H       1  UNL1        0.2105
     40 C          61.7832   81.9026   14.2241 C.3     1  UNL1        0.1396
     41 O          62.6464   80.7328   14.5932 O.3     1  UNL1       -0.3819
     42 H          63.3195   80.5987   13.9078 H       1  UNL1        0.2104
@<TRIPOS>BOND
     1    26    27    1
     2    27    28    1
     3    27    25    1
     4    25    19    1
     5    19    20   ar
     6    20    21   ar
     7    21    17    1
     8    17     1    1
     9     1     2   ar
    10     2     3   ar
    11     3     4   ar
    12     4     7    1
    13     7     8   ar
    14     8     9   ar
    15     9    10   ar
    16    10    11   ar
    17    11    12   ar
    18    12    13   ar
    19    13    14   ar
    20    14    15   ar
    21    15    16   ar
    22     4     5   ar
    23     5    29    1
    24    31    29    1
    25    31    32    1
    26    32    33    1
    27    33    40    1
    28    40    41    1
    29    33    34    1
    30    34    35    1
    31    34    36    1
    32    36    37    1
    33     5     6   ar
    34    21    22   ar
    35    22    23   ar
    36    23    24   ar
    37    24    19   ar
    38     6     1   ar
    39    16     7   ar
    40    36    31    1
    41    15    10   ar
    42    17    18    1
    43    29    30    1
    44    41    42    1
    45    35    38    1
    46    37    39    1
@<TRIPOS>MOLECULE
*****
 42 46 0 0 0
SMALL
GASTEIGER

@<TRIPOS>ATOM
      1 C          63.7987   88.9787   14.4395 C.ar    1  UNL1        0.2218
      2 N          63.7879   88.0018   15.5778 N.ar    1  UNL1       -0.2119
      3 C          63.5731   86.5415   15.3108 C.ar    1  UNL1        0.1061
      4 C          63.3691   86.0581   13.9056 C.ar    1  UNL1        0.0683
      5 C          63.3799   87.0349   12.7674 C.ar    1  UNL1        0.1343
      6 N          63.5947   88.4953   13.0343 N.ar    1  UNL1       -0.1988
      7 C          63.1543   84.5977   13.6386 C.ar    1  UNL1        0.0854
      8 C          62.6720   83.6974   14.7372 C.ar    1  UNL1        0.0193
      9 C          62.4572   82.2371   14.4702 C.ar    1  UNL1        0.0030
     10 C          62.7247   81.6770   13.1046 C.ar    1  UNL1        0.0177
     11 C          62.5099   80.2167   12.8377 C.ar    1  UNL1        0.0015
     12 C          62.7774   79.6567   11.4721 C.ar    1  UNL1        0.0001
     13 C          63.2598   80.5569   10.3735 C.ar    1  UNL1        0.0015
     14 C          63.4746   82.0172   10.6405 C.ar    1  UNL1        0.0191
     15 C          63.2070   82.5773   12.0060 C.ar    1  UNL1        0.0813
     16 N          63.4219   84.0376   12.2731 N.ar    1  UNL1       -0.2452
     17 N          64.0135   90.4391   14.7066 N.pl3   1  UNL1       -0.2823
     18 H          63.5156   90.8859   15.4288 H       1  UNL1        0.1551
     19 C          67.3311   92.2975   13.5707 C.ar    1  UNL1        0.2260
     20 C          66.3576   91.5179   14.4041 C.ar    1  UNL1        0.0724
     21 C          64.9870   91.2186   13.8731 C.ar    1  UNL1        0.0567
     22 C          64.5900   91.6988   12.5087 C.ar    1  UNL1        0.0356
     23 C          65.5634   92.4784   11.6752 C.ar    1  UNL1        0.1033
     24 N          66.9340   92.7777   12.2062 N.ar    1  UNL1       -0.2101
     25 O          68.7016   92.5968   14.1017 O.3     1  UNL1       -0.4640
     26 C          69.0623   94.4066   15.9304 C.3     1  UNL1        0.0473
     27 C          68.8827   92.9686   15.5435 C.3     1  UNL1        0.1678
     28 C          68.8841   91.9023   16.5985 C.3     1  UNL1        0.0473
     29 N          63.1759   86.5514   11.3621 N.pl3   1  UNL1       -0.3172
     30 H          63.7622   85.8524   10.9920 H       1  UNL1        0.1482
     31 C          62.0787   87.1330   10.5208 C.3     1  UNL1        0.0998
     32 C          60.9680   86.3656    9.8669 C.3     1  UNL1        0.0271
     33 C          60.1023   87.3423    9.1276 C.3     1  UNL1        0.0604
     34 C          60.6780   88.7134    9.3245 C.3     1  UNL1        0.1412
     35 O          60.1287   89.9898    8.7596 O.3     1  UNL1       -0.3818
     36 C          61.8994   88.5840   10.1855 C.3     1  UNL1        0.1549
     37 O          62.7860   89.7083   10.6327 O.3     1  UNL1       -0.3803
     38 H          60.6875   90.7327    9.0364 H       1  UNL1        0.2104
     39 H          62.4493   90.5461   10.2784 H       1  UNL1        0.2105
     40 C          58.8763   87.0069    8.3312 C.3     1  UNL1        0.1396
     41 O          58.9222   85.9086    7.3106 O.3     1  UNL1       -0.3819
     42 H          59.5197   86.1619    6.5897 H       1  UNL1        0.2104
@<TRIPOS>BOND
     1    26    27    1
     2    27    28    1
     3    27    25    1
     4    25    19    1
     5    19    20   ar
     6    20    21   ar
     7    21    17    1
     8    17     1    1
     9     1     2   ar
    10     2     3   ar
    11     3     4   ar
    12     4     7    1
    13     7     8   ar
    14     8     9   ar
    15     9    10   ar
    16    10    11   ar
    17    11    12   ar
    18    12    13   ar
    19    13    14   ar
    20    14    15   ar
    21    15    16   ar
    22     4     5   ar
    23     5    29    1
    24    31    29    1
    25    31    32    1
    26    32    33    1
    27    33    40    1
    28    40    41    1
    29    33    34    1
    30    34    35    1
    31    34    36    1
    32    36    37    1
    33     5     6   ar
    34    21    22   ar
    35    22    23   ar
    36    23    24   ar
    37    24    19   ar
    38     6     1   ar
    39    16     7   ar
    40    36    31    1
    41    15    10   ar
    42    17    18    1
    43    29    30    1
    44    41    42    1
    45    35    38    1
    46    37    39    1
@<TRIPOS>MOLECULE
*****
 42 46 0 0 0
SMALL
GASTEIGER

@<TRIPOS>ATOM
      1 C          63.9806   89.5448   14.9155 C.ar    1  UNL1        0.2218
      2 N          64.0800   88.5206   16.0068 N.ar    1  UNL1       -0.2119
      3 C          63.8625   87.0695   15.6956 C.ar    1  UNL1        0.1061
      4 C          63.5455   86.6426   14.2930 C.ar    1  UNL1        0.0683
      5 C          63.4461   87.6669   13.2016 C.ar    1  UNL1        0.1343
      6 N          63.6636   89.1180   13.5129 N.ar    1  UNL1       -0.1988
      7 C          63.3280   85.1915   13.9816 C.ar    1  UNL1        0.0854
      8 C          62.8576   84.2562   15.0560 C.ar    1  UNL1        0.0193
      9 C          62.6401   82.8051   14.7447 C.ar    1  UNL1        0.0030
     10 C          62.8929   82.2892   13.3590 C.ar    1  UNL1        0.0177
     11 C          62.6753   80.8381   13.0478 C.ar    1  UNL1        0.0015
     12 C          62.9281   80.3222   11.6622 C.ar    1  UNL1        0.0001
     13 C          63.3984   81.2574   10.5879 C.ar    1  UNL1        0.0015
     14 C          63.6160   82.7085   10.8991 C.ar    1  UNL1        0.0191
     15 C          63.3632   83.2244   12.2847 C.ar    1  UNL1        0.0813
     16 N          63.5807   84.6756   12.5960 N.ar    1  UNL1       -0.2452
     17 N          64.1981   90.9960   15.2268 N.pl3   1  UNL1       -0.2823
     18 H          63.4607   91.5373   15.5909 H       1  UNL1        0.1551
     19 C          67.5583   92.0774   13.4129 C.ar    1  UNL1        0.2260
     20 C          66.2172   91.4509   13.6564 C.ar    1  UNL1        0.0724
     21 C          65.5391   91.6224   14.9834 C.ar    1  UNL1        0.0567
     22 C          66.2020   92.4203   16.0668 C.ar    1  UNL1        0.0356
     23 C          67.5430   93.0468   15.8234 C.ar    1  UNL1        0.1033
     24 N          68.2211   92.8753   14.4965 N.ar    1  UNL1       -0.2101
     25 O          68.2364   91.9059   12.0860 O.3     1  UNL1       -0.4640
     26 C          68.2345   92.2061    9.5054 C.3     1  UNL1        0.0473
     27 C          67.5979   92.4482   10.8418 C.3     1  UNL1        0.1678
     28 C          66.3227   93.2327   10.9339 C.3     1  UNL1        0.0473
     29 N          63.1291   87.2400   11.7990 N.pl3   1  UNL1       -0.3172
     30 H          63.6097   86.4819   11.3947 H       1  UNL1        0.1482
     31 C          62.0798   87.9682   11.0124 C.3     1  UNL1        0.0998
     32 C          61.3102   89.1711   11.4714 C.3     1  UNL1        0.0271
     33 C          60.3706   89.5678   10.3714 C.3     1  UNL1        0.0604
     34 C          60.5596   88.6100    9.2326 C.3     1  UNL1        0.1412
     35 O          59.8218   88.6361    7.9268 O.3     1  UNL1       -0.3818
     36 C          61.6159   87.6214    9.6288 C.3     1  UNL1        0.1549
     37 O          62.1199   86.4855    8.7887 O.3     1  UNL1       -0.3803
     38 H          60.1320   87.9084    7.3656 H       1  UNL1        0.2104
     39 H          61.6557   86.4825    7.9370 H       1  UNL1        0.2105
     40 C          59.4107   90.7199   10.4045 C.3     1  UNL1        0.1396
     41 O          58.9757   91.2962   11.7193 O.3     1  UNL1       -0.3819
     42 H          58.4552   90.6372   12.2048 H       1  UNL1        0.2104
@<TRIPOS>BOND
     1    26    27    1
     2    27    28    1
     3    27    25    1
     4    25    19    1
     5    19    20   ar
     6    20    21   ar
     7    21    17    1
     8    17     1    1
     9     1     2   ar
    10     2     3   ar
    11     3     4   ar
    12     4     7    1
    13     7     8   ar
    14     8     9   ar
    15     9    10   ar
    16    10    11   ar
    17    11    12   ar
    18    12    13   ar
    19    13    14   ar
    20    14    15   ar
    21    15    16   ar
    22     4     5   ar
    23     5    29    1
    24    31    29    1
    25    31    32    1
    26    32    33    1
    27    33    40    1
    28    40    41    1
    29    33    34    1
    30    34    35    1
    31    34    36    1
    32    36    37    1
    33     5     6   ar
    34    21    22   ar
    35    22    23   ar
    36    23    24   ar
    37    24    19   ar
    38     6     1   ar
    39    16     7   ar
    40    36    31    1
    41    15    10   ar
    42    17    18    1
    43    29    30    1
    44    41    42    1
    45    35    38    1
    46    37    39    1
@<TRIPOS>MOLECULE
*****
 42 46 0 0 0
SMALL
GASTEIGER

@<TRIPOS>ATOM
      1 C          61.6272   89.7589   10.7057 C.ar    1  UNL1        0.2218
      2 N          62.4720   90.7421    9.9510 N.ar    1  UNL1       -0.2119
      3 C          63.5944   91.4549   10.6454 C.ar    1  UNL1        0.1061
      4 C          63.8718   91.1845   12.0945 C.ar    1  UNL1        0.0683
      5 C          63.0270   90.2012   12.8491 C.ar    1  UNL1        0.1343
      6 N          61.9047   89.4884   12.1547 N.ar    1  UNL1       -0.1988
      7 C          64.9942   91.8973   12.7889 C.ar    1  UNL1        0.0854
      8 C          65.4127   93.2630   12.3309 C.ar    1  UNL1        0.0193
      9 C          66.5350   93.9758   13.0253 C.ar    1  UNL1        0.0030
     10 C          67.2390   93.3229   14.1778 C.ar    1  UNL1        0.0177
     11 C          68.3613   94.0357   14.8722 C.ar    1  UNL1        0.0015
     12 C          69.0652   93.3828   16.0247 C.ar    1  UNL1        0.0001
     13 C          68.6468   92.0171   16.4827 C.ar    1  UNL1        0.0015
     14 C          67.5245   91.3043   15.7883 C.ar    1  UNL1        0.0191
     15 C          66.8206   91.9572   14.6359 C.ar    1  UNL1        0.0813
     16 N          65.6982   91.2444   13.9414 N.ar    1  UNL1       -0.2452
     17 N          60.5048   89.0461   10.0112 N.pl3   1  UNL1       -0.2823
     18 H          59.5891   89.4044   10.0601 H       1  UNL1        0.1551
     19 C          62.2698   85.7111    8.7813 C.ar    1  UNL1        0.2260
     20 C          61.9969   86.9698    9.5502 C.ar    1  UNL1        0.0724
     21 C          60.7776   87.7874    9.2423 C.ar    1  UNL1        0.0567
     22 C          59.8311   87.3463    8.1654 C.ar    1  UNL1        0.0356
     23 C          60.1039   86.0876    7.3965 C.ar    1  UNL1        0.1033
     24 N          61.3232   85.2700    7.7044 N.ar    1  UNL1       -0.2101
     25 O          63.4890   84.8935    9.0892 O.3     1  UNL1       -0.4640
     26 C          62.6040   84.2339   11.4411 C.3     1  UNL1        0.0473
     27 C          63.4880   83.9574   10.2613 C.3     1  UNL1        0.1678
     28 C          64.3711   82.7450   10.2536 C.3     1  UNL1        0.0473
     29 N          63.3045   89.9308   14.2983 N.pl3   1  UNL1       -0.3172
     30 H          63.3105   90.6729   14.9452 H       1  UNL1        0.1482
     31 C          63.5730   88.5297   14.7617 C.3     1  UNL1        0.0998
     32 C          64.0712   87.3996   13.9104 C.3     1  UNL1        0.0271
     33 C          64.1965   86.1841   14.7804 C.3     1  UNL1        0.0604
     34 C          63.7758   86.5630   16.1694 C.3     1  UNL1        0.1412
     35 O          63.7456   85.6522   17.3608 O.3     1  UNL1       -0.3818
     36 C          63.3904   88.0126   16.1579 C.3     1  UNL1        0.1549
     37 O          62.9073   88.8058   17.3357 O.3     1  UNL1       -0.3803
     38 H          63.4354   86.1448   18.1367 H       1  UNL1        0.2104
     39 H          62.8796   88.2358   18.1200 H       1  UNL1        0.2105
     40 C          64.6610   84.8280   14.3388 C.3     1  UNL1        0.1396
     41 O          64.6691   83.6850   15.3102 O.3     1  UNL1       -0.3819
     42 H          65.3186   83.8594   16.0093 H       1  UNL1        0.2104
@<TRIPOS>BOND
     1    26    27    1
     2    27    28    1
     3    27    25    1
     4    25    19    1
     5    19    20   ar
     6    20    21   ar
     7    21    17    1
     8    17     1    1
     9     1     2   ar
    10     2     3   ar
    11     3     4   ar
    12     4     7    1
    13     7     8   ar
    14     8     9   ar
    15     9    10   ar
    16    10    11   ar
    17    11    12   ar
    18    12    13   ar
    19    13    14   ar
    20    14    15   ar
    21    15    16   ar
    22     4     5   ar
    23     5    29    1
    24    31    29    1
    25    31    32    1
    26    32    33    1
    27    33    40    1
    28    40    41    1
    29    33    34    1
    30    34    35    1
    31    34    36    1
    32    36    37    1
    33     5     6   ar
    34    21    22   ar
    35    22    23   ar
    36    23    24   ar
    37    24    19   ar
    38     6     1   ar
    39    16     7   ar
    40    36    31    1
    41    15    10   ar
    42    17    18    1
    43    29    30    1
    44    41    42    1
    45    35    38    1
    46    37    39    1
@<TRIPOS>MOLECULE
*****
 42 46 0 0 0
SMALL
GASTEIGER

@<TRIPOS>ATOM
      1 C          59.0587   88.1813    7.6660 C.ar    1  UNL1        0.2218
      2 N          59.5384   86.8936    7.0646 N.ar    1  UNL1       -0.2119
      3 C          60.4777   86.0113    7.8322 C.ar    1  UNL1        0.1061
      4 C          60.9373   86.4167    9.2013 C.ar    1  UNL1        0.0683
      5 C          60.4577   87.7045    9.8027 C.ar    1  UNL1        0.1343
      6 N          59.5184   88.5868    9.0351 N.ar    1  UNL1       -0.1988
      7 C          61.8766   85.5344    9.9690 C.ar    1  UNL1        0.0854
      8 C          62.9562   84.7822    9.2488 C.ar    1  UNL1        0.0193
      9 C          63.8955   83.8999   10.0165 C.ar    1  UNL1        0.0030
     10 C          63.7553   83.7699   11.5043 C.ar    1  UNL1        0.0177
     11 C          64.6946   82.8876   12.2719 C.ar    1  UNL1        0.0015
     12 C          64.5543   82.7576   13.7596 C.ar    1  UNL1        0.0001
     13 C          63.4747   83.5099   14.4797 C.ar    1  UNL1        0.0015
     14 C          62.5354   84.3922   13.7121 C.ar    1  UNL1        0.0191
     15 C          62.6757   84.5222   12.2244 C.ar    1  UNL1        0.0813
     16 N          61.7364   85.4045   11.4567 N.ar    1  UNL1       -0.2452
     17 N          58.1194   89.0636    6.8983 N.pl3   1  UNL1       -0.2823
     18 H          57.1464   88.9518    6.9986 H       1  UNL1        0.1551
     19 C          60.6868   91.2988    4.8582 C.ar    1  UNL1        0.2260
     20 C          60.1436   90.2463    5.7785 C.ar    1  UNL1        0.0724
     21 C          58.6626   90.1162    5.9780 C.ar    1  UNL1        0.0567
     22 C          57.7248   91.0386    5.2571 C.ar    1  UNL1        0.0356
     23 C          58.2680   92.0912    4.3368 C.ar    1  UNL1        0.1033
     24 N          59.7490   92.2213    4.1373 N.ar    1  UNL1       -0.2101
     25 O          62.1677   91.4290    4.6587 O.3     1  UNL1       -0.4640
     26 C          63.8504   90.3835    2.9777 C.3     1  UNL1        0.0473
     27 C          62.7478   91.3553    3.2773 C.3     1  UNL1        0.1678
     28 C          62.2253   92.2535    2.1956 C.3     1  UNL1        0.0473
     29 N          60.9174   88.1099   11.1718 N.pl3   1  UNL1       -0.3172
     30 H          60.5456   87.6654   11.9676 H       1  UNL1        0.1482
     31 C          61.9436   89.1927   11.3283 C.3     1  UNL1        0.0998
     32 C          62.7785   89.4465   12.5483 C.3     1  UNL1        0.0271
     33 C          63.6660   90.6224   12.2663 C.3     1  UNL1        0.0604
     34 C          63.3796   91.0954   10.8719 C.3     1  UNL1        0.1412
     35 O          64.0415   92.2493   10.1789 O.3     1  UNL1       -0.3818
     36 C          62.3151   90.2117   10.2922 C.3     1  UNL1        0.1549
     37 O          61.7256   90.3270    8.9177 O.3     1  UNL1       -0.3803
     38 H          63.6751   92.3433    9.2857 H       1  UNL1        0.2104
     39 H          62.1397   91.0688    8.4495 H       1  UNL1        0.2105
     40 C          64.6646   91.2203   13.2125 C.3     1  UNL1        0.1396
     41 O          65.1488   92.6245   13.0031 O.3     1  UNL1       -0.3819
     42 H          65.6580   92.6714   12.1788 H       1  UNL1        0.2104
@<TRIPOS>BOND
     1    26    27    1
     2    27    28    1
     3    27    25    1
     4    25    19    1
     5    19    20   ar
     6    20    21   ar
     7    21    17    1
     8    17     1    1
     9     1     2   ar
    10     2     3   ar
    11     3     4   ar
    12     4     7    1
    13     7     8   ar
    14     8     9   ar
    15     9    10   ar
    16    10    11   ar
    17    11    12   ar
    18    12    13   ar
    19    13    14   ar
    20    14    15   ar
    21    15    16   ar
    22     4     5   ar
    23     5    29    1
    24    31    29    1
    25    31    32    1
    26    32    33    1
    27    33    40    1
    28    40    41    1
    29    33    34    1
    30    34    35    1
    31    34    36    1
    32    36    37    1
    33     5     6   ar
    34    21    22   ar
    35    22    23   ar
    36    23    24   ar
    37    24    19   ar
    38     6     1   ar
    39    16     7   ar
    40    36    31    1
    41    15    10   ar
    42    17    18    1
    43    29    30    1
    44    41    42    1
    45    35    38    1
    46    37    39    1
@<TRIPOS>MOLECULE
*****
 42 46 0 0 0
SMALL
GASTEIGER

@<TRIPOS>ATOM
      1 C          63.3340   89.6139   12.7906 C.ar    1  UNL1        0.2218
      2 N          64.3367   88.9636   13.6970 N.ar    1  UNL1       -0.2119
      3 C          64.2667   87.4880   13.9570 C.ar    1  UNL1        0.1061
      4 C          63.1940   86.6626   13.3105 C.ar    1  UNL1        0.0683
      5 C          62.1912   87.3129   12.4041 C.ar    1  UNL1        0.1343
      6 N          62.2612   88.7885   12.1441 N.ar    1  UNL1       -0.1988
      7 C          63.1239   85.1870   13.5705 C.ar    1  UNL1        0.0854
      8 C          63.1617   84.6708   14.9784 C.ar    1  UNL1        0.0193
      9 C          63.0917   83.1952   15.2384 C.ar    1  UNL1        0.0030
     10 C          62.9838   82.2357   14.0904 C.ar    1  UNL1        0.0177
     11 C          62.9137   80.7601   14.3504 C.ar    1  UNL1        0.0015
     12 C          62.8058   79.8006   13.2025 C.ar    1  UNL1        0.0001
     13 C          62.7680   80.3167   11.7946 C.ar    1  UNL1        0.0015
     14 C          62.8380   81.7923   11.5346 C.ar    1  UNL1        0.0191
     15 C          62.9459   82.7518   12.6825 C.ar    1  UNL1        0.0813
     16 N          63.0160   84.2275   12.4226 N.ar    1  UNL1       -0.2452
     17 N          63.4041   91.0896   12.5306 N.pl3   1  UNL1       -0.2823
     18 H          62.5838   91.6333   12.5559 H       1  UNL1        0.1551
     19 C          67.1225   92.4029   12.9759 C.ar    1  UNL1        0.2260
     20 C          65.8026   91.7558   13.2744 C.ar    1  UNL1        0.0724
     21 C          64.7240   91.7367   12.2322 C.ar    1  UNL1        0.0567
     22 C          64.9653   92.3646   10.8915 C.ar    1  UNL1        0.0356
     23 C          66.2852   93.0118   10.5930 C.ar    1  UNL1        0.1033
     24 N          67.3638   93.0309   11.6352 N.ar    1  UNL1       -0.2101
     25 O          68.2012   92.4220   14.0181 O.3     1  UNL1       -0.4640
     26 C          66.7407   92.7146   16.1468 C.3     1  UNL1        0.0473
     27 C          67.9528   93.0808   15.3426 C.3     1  UNL1        0.1678
     28 C          68.9164   94.1058   15.8629 C.3     1  UNL1        0.0473
     29 N          61.1184   86.4875   11.7576 N.pl3   1  UNL1       -0.3172
     30 H          60.4981   85.9633   12.3140 H       1  UNL1        0.1482
     31 C          60.9908   86.4609   10.2633 C.3     1  UNL1        0.0998
     32 C          59.9825   87.2180    9.4508 C.3     1  UNL1        0.0271
     33 C          60.2176   86.8975    8.0044 C.3     1  UNL1        0.0604
     34 C          61.3712   85.9422    7.9230 C.3     1  UNL1        0.1412
     35 O          61.9460   85.3591    6.6661 O.3     1  UNL1       -0.3818
     36 C          61.8490   85.6724    9.3190 C.3     1  UNL1        0.1549
     37 O          62.9856   84.7721    9.7032 O.3     1  UNL1       -0.3803
     38 H          62.6847   84.7718    6.8906 H       1  UNL1        0.2104
     39 H          63.3740   84.3826    8.9042 H       1  UNL1        0.2105
     40 C          59.4362   87.4374    6.8434 C.3     1  UNL1        0.1396
     41 O          58.5684   88.6478    7.0215 O.3     1  UNL1       -0.3819
     42 H          57.8383   88.4364    7.6242 H       1  UNL1        0.2104
@<TRIPOS>BOND
     1    26    27    1
     2    27    28    1
     3    27    25    1
     4    25    19    1
     5    19    20   ar
     6    20    21   ar
     7    21    17    1
     8    17     1    1
     9     1     2   ar
    10     2     3   ar
    11     3     4   ar
    12     4     7    1
    13     7     8   ar
    14     8     9   ar
    15     9    10   ar
    16    10    11   ar
    17    11    12   ar
    18    12    13   ar
    19    13    14   ar
    20    14    15   ar
    21    15    16   ar
    22     4     5   ar
    23     5    29    1
    24    31    29    1
    25    31    32    1
    26    32    33    1
    27    33    40    1
    28    40    41    1
    29    33    34    1
    30    34    35    1
    31    34    36    1
    32    36    37    1
    33     5     6   ar
    34    21    22   ar
    35    22    23   ar
    36    23    24   ar
    37    24    19   ar
    38     6     1   ar
    39    16     7   ar
    40    36    31    1
    41    15    10   ar
    42    17    18    1
    43    29    30    1
    44    41    42    1
    45    35    38    1
    46    37    39    1
@<TRIPOS>MOLECULE
*****
 42 46 0 0 0
SMALL
GASTEIGER

@<TRIPOS>ATOM
      1 C          63.2994   89.5228   12.8380 C.ar    1  UNL1        0.2218
      2 N          64.2950   88.8528   13.7380 N.ar    1  UNL1       -0.2119
      3 C          64.2164   87.3736   13.9739 C.ar    1  UNL1        0.1061
      4 C          63.1422   86.5643   13.3098 C.ar    1  UNL1        0.0683
      5 C          62.1466   87.2343   12.4097 C.ar    1  UNL1        0.1343
      6 N          62.2252   88.7135   12.1738 N.ar    1  UNL1       -0.1988
      7 C          63.0635   85.0850   13.5456 C.ar    1  UNL1        0.0854
      8 C          63.0428   84.5490   14.9464 C.ar    1  UNL1        0.0193
      9 C          62.9641   83.0698   15.1824 C.ar    1  UNL1        0.0030
     10 C          62.9062   82.1265   14.0174 C.ar    1  UNL1        0.0177
     11 C          62.8275   80.6473   14.2534 C.ar    1  UNL1        0.0015
     12 C          62.7696   79.7041   13.0885 C.ar    1  UNL1        0.0001
     13 C          62.7903   80.2402   11.6877 C.ar    1  UNL1        0.0015
     14 C          62.8690   81.7194   11.4518 C.ar    1  UNL1        0.0191
     15 C          62.9269   82.6626   12.6166 C.ar    1  UNL1        0.0813
     16 N          63.0056   84.1419   12.3808 N.ar    1  UNL1       -0.2452
     17 N          63.3781   91.0021   12.6021 N.pl3   1  UNL1       -0.2823
     18 H          62.5636   91.5095   12.3821 H       1  UNL1        0.1551
     19 C          66.5939   93.0993   11.5971 C.ar    1  UNL1        0.2260
     20 C          65.2743   92.3932   11.4978 C.ar    1  UNL1        0.0724
     21 C          64.6977   91.7082   12.7014 C.ar    1  UNL1        0.0567
     22 C          65.4408   91.7294   14.0042 C.ar    1  UNL1        0.0356
     23 C          66.7605   92.4356   14.1035 C.ar    1  UNL1        0.1033
     24 N          67.3371   93.1205   12.9000 N.ar    1  UNL1       -0.2101
     25 O          67.1705   93.7843   10.3937 O.3     1  UNL1       -0.4640
     26 C          66.0818   96.0205   11.1447 C.3     1  UNL1        0.0473
     27 C          66.9199   95.2463   10.1709 C.3     1  UNL1        0.1678
     28 C          67.5074   95.9342    8.9744 C.3     1  UNL1        0.0473
     29 N          61.0724   86.4249   11.7456 N.pl3   1  UNL1       -0.3172
     30 H          60.4384   85.9060   12.2915 H       1  UNL1        0.1482
     31 C          60.9641   86.4061   10.2496 C.3     1  UNL1        0.0998
     32 C          59.9423   87.1373    9.4303 C.3     1  UNL1        0.0271
     33 C          60.2054   86.8360    7.9846 C.3     1  UNL1        0.0604
     34 C          61.3898   85.9185    7.9104 C.3     1  UNL1        0.1412
     35 O          61.9984   85.3641    6.6566 O.3     1  UNL1       -0.3818
     36 C          61.8587   85.6529    9.3102 C.3     1  UNL1        0.1549
     37 O          63.0186   84.7862    9.7019 O.3     1  UNL1       -0.3803
     38 H          62.7526   84.7988    6.8858 H       1  UNL1        0.2104
     39 H          63.4290   84.4156    8.9050 H       1  UNL1        0.2105
     40 C          59.4216   87.3601    6.8180 C.3     1  UNL1        0.1396
     41 O          58.6786   88.6578    6.9358 O.3     1  UNL1       -0.3819
     42 H          57.9624   88.5626    7.5830 H       1  UNL1        0.2104
@<TRIPOS>BOND
     1    26    27    1
     2    27    28    1
     3    27    25    1
     4    25    19    1
     5    19    20   ar
     6    20    21   ar
     7    21    17    1
     8    17     1    1
     9     1     2   ar
    10     2     3   ar
    11     3     4   ar
    12     4     7    1
    13     7     8   ar
    14     8     9   ar
    15     9    10   ar
    16    10    11   ar
    17    11    12   ar
    18    12    13   ar
    19    13    14   ar
    20    14    15   ar
    21    15    16   ar
    22     4     5   ar
    23     5    29    1
    24    31    29    1
    25    31    32    1
    26    32    33    1
    27    33    40    1
    28    40    41    1
    29    33    34    1
    30    34    35    1
    31    34    36    1
    32    36    37    1
    33     5     6   ar
    34    21    22   ar
    35    22    23   ar
    36    23    24   ar
    37    24    19   ar
    38     6     1   ar
    39    16     7   ar
    40    36    31    1
    41    15    10   ar
    42    17    18    1
    43    29    30    1
    44    41    42    1
    45    35    38    1
    46    37    39    1
