@<TRIPOS>MOLECULE
*****
 35 38 0 0 0
SMALL
GASTEIGER

@<TRIPOS>ATOM
      1 C          60.2737   88.7885    8.7587 C.ar    1  UNL1       -0.0231
      2 C          60.5346   87.6512    9.7013 C.ar    1  UNL1       -0.0246
      3 C          60.3361   86.2368    9.2432 C.ar    1  UNL1       -0.0045
      4 C          59.8766   85.9596    7.8424 C.ar    1  UNL1       -0.0002
      5 C          59.6157   87.0969    6.8999 C.ar    1  UNL1        0.0027
      6 C          59.8143   88.5113    7.3580 C.ar    1  UNL1        0.0322
      7 C          59.5533   89.6486    6.4154 C.ar    1  UNL1        0.1700
      8 N          58.2700   90.4153    6.2926 N.ar    1  UNL1       -0.1885
      9 S          58.4535   91.4594    5.2314 S.2     1  UNL1        0.0341
     10 C          59.8503   91.3380    4.6982 C.ar    1  UNL1        0.1299
     11 N          60.5300   90.2189    5.4300 N.ar    1  UNL1       -0.2181
     12 C          60.4602   92.1867    3.6223 C.ar    1  UNL1        0.0263
     13 C          59.6214   93.1983    2.8991 C.ar    1  UNL1        0.0052
     14 C          60.2313   94.0470    1.8232 C.ar    1  UNL1        0.0378
     15 C          61.6801   93.8840    1.4704 C.ar    1  UNL1        0.1488
     16 C          62.5190   92.8724    2.1935 C.ar    1  UNL1        0.0916
     17 CL         63.9678   92.7095    1.8407 Cl      1  UNL1       -0.0791
     18 C          61.9090   92.0237    3.2695 C.ar    1  UNL1        0.0165
     19 O          62.2901   94.7327    0.3944 O.3     1  UNL1       -0.4783
     20 C          62.4681   94.1779   -0.9878 C.3     1  UNL1        0.1662
     21 C          63.8375   94.1036   -1.5956 C.3     1  UNL1        0.0472
     22 C          61.2768   93.6974   -1.7624 C.3     1  UNL1        0.0472
     23 C          59.9217   90.6472   10.5396 C.3     1  UNL1        0.0050
     24 C          60.4722   90.2030    9.2169 C.3     1  UNL1        0.0261
     25 C          60.9941   87.9284   11.1021 C.3     1  UNL1        0.0433
     26 C          62.4135   87.6453   11.4956 C.3     1  UNL1        0.0768
     27 N          63.1505   88.6026   12.3849 N.3     1  UNL1       -0.2724
     28 C          63.2110   90.0592   12.0318 C.3     1  UNL1        0.0725
     29 C          63.9478   91.0164   12.9210 C.3     1  UNL1        0.0229
     30 C          64.6242   90.5170   14.1632 C.3     1  UNL1        0.0393
     31 C          64.5638   89.0604   14.5163 C.3     1  UNL1        0.0229
     32 C          63.8269   88.1032   13.6271 C.3     1  UNL1        0.0725
     33 C          65.3612   91.4743   15.0524 C.2     1  UNL1        0.0501
     34 O          66.8495   91.6162   14.9314 O.co2   1  UNL1       -0.5492
     35 O          64.6098   92.2896   16.0626 O.co2   1  UNL1       -0.5492
@<TRIPOS>UNITY_ATOM_ATTR
34 1
charge -1
@<TRIPOS>BOND
     1    23    24    1
     2    24     1    1
     3     1     2   ar
     4     2    25    1
     5    25    26    1
     6    26    27    1
     7    27    28    1
     8    28    29    1
     9    29    30    1
    10    30    33    1
    11    33    34   ar
    12    33    35   ar
    13    30    31    1
    14    31    32    1
    15     2     3   ar
    16     3     4   ar
    17     4     5   ar
    18     5     6   ar
    19     6     7    1
    20     7     8   ar
    21     8     9   ar
    22     9    10   ar
    23    10    12    1
    24    12    13   ar
    25    13    14   ar
    26    14    15   ar
    27    15    19    1
    28    19    20    1
    29    20    21    1
    30    20    22    1
    31    15    16   ar
    32    16    17    1
    33    16    18   ar
    34    10    11   ar
    35     6     1   ar
    36    11     7   ar
    37    32    27    1
    38    18    12   ar
@<TRIPOS>MOLECULE
*****
 35 38 0 0 0
SMALL
GASTEIGER

@<TRIPOS>ATOM
      1 C          64.0772   89.7761   13.2172 C.ar    1  UNL1       -0.0231
      2 C          64.0568   91.1571   12.6323 C.ar    1  UNL1       -0.0246
      3 C          63.4089   91.3983   11.3011 C.ar    1  UNL1       -0.0045
      4 C          62.7814   90.2584   10.5549 C.ar    1  UNL1       -0.0002
      5 C          62.8018   88.8774   11.1398 C.ar    1  UNL1        0.0027
      6 C          63.4497   88.6362   12.4710 C.ar    1  UNL1        0.0322
      7 C          63.4701   87.2551   13.0560 C.ar    1  UNL1        0.1700
      8 N          63.7899   86.9049   14.4790 N.ar    1  UNL1       -0.1885
      9 S          63.6917   85.4151   14.6231 S.2     1  UNL1        0.0341
     10 C          63.3113   84.8444   13.2890 C.ar    1  UNL1        0.1299
     11 N          63.1743   85.9816   12.3205 N.ar    1  UNL1       -0.2181
     12 C          63.1042   83.3917   12.9781 C.ar    1  UNL1        0.0263
     13 C          63.9322   82.7259   11.9194 C.ar    1  UNL1        0.0052
     14 C          63.7251   81.2732   11.6084 C.ar    1  UNL1        0.0378
     15 C          62.6899   80.4863   12.3563 C.ar    1  UNL1        0.1488
     16 C          61.8619   81.1521   13.4150 C.ar    1  UNL1        0.0916
     17 CL         60.8267   80.3652   14.1629 Cl      1  UNL1       -0.0791
     18 C          62.0690   82.6048   13.7260 C.ar    1  UNL1        0.0165
     19 O          62.4828   79.0336   12.0454 O.3     1  UNL1       -0.4783
     20 C          62.7169   78.5236   10.6543 C.3     1  UNL1        0.1662
     21 C          63.1065   77.0915   10.4361 C.3     1  UNL1        0.0472
     22 C          62.5613   79.4454    9.4813 C.3     1  UNL1        0.0472
     23 C          63.9891   89.8683   15.8122 C.3     1  UNL1        0.0050
     24 C          64.7251   89.5349   14.5484 C.3     1  UNL1        0.0261
     25 C          64.6843   92.2971   13.3785 C.3     1  UNL1        0.0433
     26 C          66.0540   92.7776   13.0003 C.3     1  UNL1        0.0768
     27 N          66.2334   93.6684   11.8068 N.3     1  UNL1       -0.2724
     28 C          66.6022   93.0774   10.4784 C.3     1  UNL1        0.0725
     29 C          66.7815   93.9682    9.2851 C.3     1  UNL1        0.0229
     30 C          66.5921   95.4501    9.4201 C.3     1  UNL1        0.0393
     31 C          66.2232   96.0411   10.7484 C.3     1  UNL1        0.0229
     32 C          66.0439   95.1503   11.9418 C.3     1  UNL1        0.0725
     33 C          66.7714   96.3409    8.2266 C.2     1  UNL1        0.0501
     34 O          65.5868   96.7176    7.3871 O.co2   1  UNL1       -0.5492
     35 O          68.1354   96.8550    7.8727 O.co2   1  UNL1       -0.5492
@<TRIPOS>UNITY_ATOM_ATTR
34 1
charge -1
@<TRIPOS>BOND
     1    23    24    1
     2    24     1    1
     3     1     2   ar
     4     2    25    1
     5    25    26    1
     6    26    27    1
     7    27    28    1
     8    28    29    1
     9    29    30    1
    10    30    33    1
    11    33    34   ar
    12    33    35   ar
    13    30    31    1
    14    31    32    1
    15     2     3   ar
    16     3     4   ar
    17     4     5   ar
    18     5     6   ar
    19     6     7    1
    20     7     8   ar
    21     8     9   ar
    22     9    10   ar
    23    10    12    1
    24    12    13   ar
    25    13    14   ar
    26    14    15   ar
    27    15    19    1
    28    19    20    1
    29    20    21    1
    30    20    22    1
    31    15    16   ar
    32    16    17    1
    33    16    18   ar
    34    10    11   ar
    35     6     1   ar
    36    11     7   ar
    37    32    27    1
    38    18    12   ar
@<TRIPOS>MOLECULE
*****
 35 38 0 0 0
SMALL
GASTEIGER

@<TRIPOS>ATOM
      1 C          60.7599   88.8451    9.4326 C.ar    1  UNL1       -0.0231
      2 C          59.9150   88.4710    8.2510 C.ar    1  UNL1       -0.0246
      3 C          59.9434   87.0673    7.7230 C.ar    1  UNL1       -0.0045
      4 C          60.8166   86.0376    8.3766 C.ar    1  UNL1       -0.0002
      5 C          61.6615   86.4117    9.5582 C.ar    1  UNL1        0.0027
      6 C          61.6332   87.8154   10.0862 C.ar    1  UNL1        0.0322
      7 C          62.4781   88.1894   11.2679 C.ar    1  UNL1        0.1700
      8 N          62.8458   87.2885   12.4094 N.ar    1  UNL1       -0.1885
      9 S          63.6986   88.0723   13.3624 S.2     1  UNL1        0.0341
     10 C          63.8580   89.4578   12.8099 C.ar    1  UNL1        0.1299
     11 N          63.1037   89.5301   11.5154 N.ar    1  UNL1       -0.2181
     12 C          64.6352   90.5747   13.4411 C.ar    1  UNL1        0.0263
     13 C          64.8276   90.6075   14.9284 C.ar    1  UNL1        0.0052
     14 C          65.6049   91.7244   15.5595 C.ar    1  UNL1        0.0378
     15 C          66.1896   92.8085   14.7035 C.ar    1  UNL1        0.1488
     16 C          65.9972   92.7757   13.2163 C.ar    1  UNL1        0.0916
     17 CL         66.5820   93.8598   12.3602 Cl      1  UNL1       -0.0791
     18 C          65.2200   91.6588   12.5851 C.ar    1  UNL1        0.0165
     19 O          66.9668   93.9254   15.3347 O.3     1  UNL1       -0.4783
     20 C          68.3853   93.7008   15.7678 C.3     1  UNL1        0.1662
     21 C          69.2578   94.8707   16.1145 C.3     1  UNL1        0.0472
     22 C          68.9314   92.3064   15.8542 C.3     1  UNL1        0.0472
     23 C          59.8011   90.6103   11.0801 C.3     1  UNL1        0.0050
     24 C          60.7316   90.2488    9.9606 C.3     1  UNL1        0.0261
     25 C          59.0418   89.5007    7.5974 C.3     1  UNL1        0.0433
     26 C          58.7874   89.4400    6.1204 C.3     1  UNL1        0.0768
     27 N          59.2888   90.5359    5.2272 N.3     1  UNL1       -0.2724
     28 C          58.3227   91.5092    4.6195 C.3     1  UNL1        0.0725
     29 C          58.8242   92.6050    3.7264 C.3     1  UNL1        0.0229
     30 C          60.2917   92.7275    3.4411 C.3     1  UNL1        0.0393
     31 C          61.2577   91.7542    4.0488 C.3     1  UNL1        0.0229
     32 C          60.7563   90.6584    4.9419 C.3     1  UNL1        0.0725
     33 C          60.7931   93.8235    2.5479 C.2     1  UNL1        0.0501
     34 O          62.0731   93.6440    1.7867 O.co2   1  UNL1       -0.5492
     35 O          60.0145   95.0987    2.4160 O.co2   1  UNL1       -0.5492
@<TRIPOS>UNITY_ATOM_ATTR
34 1
charge -1
@<TRIPOS>BOND
     1    23    24    1
     2    24     1    1
     3     1     2   ar
     4     2    25    1
     5    25    26    1
     6    26    27    1
     7    27    28    1
     8    28    29    1
     9    29    30    1
    10    30    33    1
    11    33    34   ar
    12    33    35   ar
    13    30    31    1
    14    31    32    1
    15     2     3   ar
    16     3     4   ar
    17     4     5   ar
    18     5     6   ar
    19     6     7    1
    20     7     8   ar
    21     8     9   ar
    22     9    10   ar
    23    10    12    1
    24    12    13   ar
    25    13    14   ar
    26    14    15   ar
    27    15    19    1
    28    19    20    1
    29    20    21    1
    30    20    22    1
    31    15    16   ar
    32    16    17    1
    33    16    18   ar
    34    10    11   ar
    35     6     1   ar
    36    11     7   ar
    37    32    27    1
    38    18    12   ar
@<TRIPOS>MOLECULE
*****
 35 38 0 0 0
SMALL
GASTEIGER

@<TRIPOS>ATOM
      1 C          63.8820   86.7106   15.4616 C.ar    1  UNL1       -0.0231
      2 C          63.5998   85.2769   15.8004 C.ar    1  UNL1       -0.0246
      3 C          62.8594   84.9355   17.0595 C.ar    1  UNL1       -0.0045
      4 C          62.4012   86.0277   17.9798 C.ar    1  UNL1       -0.0002
      5 C          62.6834   87.4614   17.6410 C.ar    1  UNL1        0.0027
      6 C          63.4238   87.8029   16.3819 C.ar    1  UNL1        0.0322
      7 C          63.7060   89.2367   16.0432 C.ar    1  UNL1        0.1700
      8 N          63.2546   90.4332   16.8271 N.ar    1  UNL1       -0.1885
      9 S          63.7588   91.6616   16.1294 S.2     1  UNL1        0.0341
     10 C          64.5218   91.2243   14.9142 C.ar    1  UNL1        0.1299
     11 N          64.4892   89.7256   14.8609 N.ar    1  UNL1       -0.2181
     12 C          65.1986   92.1272   13.9259 C.ar    1  UNL1        0.0263
     13 C          66.1704   93.1658   14.4020 C.ar    1  UNL1        0.0052
     14 C          66.8472   94.0687   13.4137 C.ar    1  UNL1        0.0378
     15 C          66.5521   93.9329   11.9493 C.ar    1  UNL1        0.1488
     16 C          65.5802   92.8943   11.4732 C.ar    1  UNL1        0.0916
     17 CL         65.2851   92.7585   10.0087 Cl      1  UNL1       -0.0791
     18 C          64.9035   91.9914   12.4615 C.ar    1  UNL1        0.0165
     19 O          67.2289   94.8358   10.9610 O.3     1  UNL1       -0.4783
     20 C          66.4841   95.9985   10.3749 C.3     1  UNL1        0.1662
     21 C          66.6021   96.3038    8.9110 C.3     1  UNL1        0.0472
     22 C          65.6214   96.8560   11.2526 C.3     1  UNL1        0.0472
     23 C          63.8801   87.6063   13.0229 C.3     1  UNL1        0.0050
     24 C          64.6224   87.0521   14.2026 C.3     1  UNL1        0.0261
     25 C          64.0580   84.1846   14.8801 C.3     1  UNL1        0.0433
     26 C          63.0777   83.5172   13.9617 C.3     1  UNL1        0.0768
     27 N          62.8771   84.0408   12.5703 N.3     1  UNL1       -0.2724
     28 C          61.9217   85.1707   12.3246 C.3     1  UNL1        0.0725
     29 C          61.7212   85.6942   10.9334 C.3     1  UNL1        0.0229
     30 C          62.4762   85.0878    9.7878 C.3     1  UNL1        0.0393
     31 C          63.4316   83.9579   10.0335 C.3     1  UNL1        0.0229
     32 C          63.6321   83.4344   11.4248 C.3     1  UNL1        0.0725
     33 C          62.2756   85.6114    8.3964 C.2     1  UNL1        0.0501
     34 O          62.8334   84.8594    7.2245 O.co2   1  UNL1       -0.5492
     35 O          61.5174   86.8868    8.1771 O.co2   1  UNL1       -0.5492
@<TRIPOS>UNITY_ATOM_ATTR
34 1
charge -1
@<TRIPOS>BOND
     1    23    24    1
     2    24     1    1
     3     1     2   ar
     4     2    25    1
     5    25    26    1
     6    26    27    1
     7    27    28    1
     8    28    29    1
     9    29    30    1
    10    30    33    1
    11    33    34   ar
    12    33    35   ar
    13    30    31    1
    14    31    32    1
    15     2     3   ar
    16     3     4   ar
    17     4     5   ar
    18     5     6   ar
    19     6     7    1
    20     7     8   ar
    21     8     9   ar
    22     9    10   ar
    23    10    12    1
    24    12    13   ar
    25    13    14   ar
    26    14    15   ar
    27    15    19    1
    28    19    20    1
    29    20    21    1
    30    20    22    1
    31    15    16   ar
    32    16    17    1
    33    16    18   ar
    34    10    11   ar
    35     6     1   ar
    36    11     7   ar
    37    32    27    1
    38    18    12   ar
@<TRIPOS>MOLECULE
*****
 35 38 0 0 0
SMALL
GASTEIGER

@<TRIPOS>ATOM
      1 C          63.9823   86.1836   15.5396 C.ar    1  UNL1       -0.0231
      2 C          63.5935   84.7624   15.8204 C.ar    1  UNL1       -0.0246
      3 C          62.4680   84.4656   16.7665 C.ar    1  UNL1       -0.0045
      4 C          61.7312   85.5900   17.4318 C.ar    1  UNL1       -0.0002
      5 C          62.1199   87.0113   17.1510 C.ar    1  UNL1        0.0027
      6 C          63.2455   87.3081   16.2049 C.ar    1  UNL1        0.0322
      7 C          63.6342   88.7294   15.9241 C.ar    1  UNL1        0.1700
      8 N          63.3610   89.9094   16.8089 N.ar    1  UNL1       -0.1885
      9 S          63.9223   91.1295   16.1409 S.2     1  UNL1        0.0341
     10 C          64.5425   90.7035   14.8432 C.ar    1  UNL1        0.1299
     11 N          64.3645   89.2202   14.7093 N.ar    1  UNL1       -0.2181
     12 C          65.2216   91.6030   13.8533 C.ar    1  UNL1        0.0263
     13 C          66.4819   92.3215   14.2343 C.ar    1  UNL1        0.0052
     14 C          67.1609   93.2209   13.2444 C.ar    1  UNL1        0.0378
     15 C          66.5796   93.4019   11.8735 C.ar    1  UNL1        0.1488
     16 C          65.3192   92.6833   11.4925 C.ar    1  UNL1        0.0916
     17 CL         64.7379   92.8643   10.1216 Cl      1  UNL1       -0.0791
     18 C          64.6402   91.7839   12.4824 C.ar    1  UNL1        0.0165
     19 O          67.2586   94.3013   10.8836 O.3     1  UNL1       -0.4783
     20 C          67.7658   93.7425    9.5873 C.3     1  UNL1        0.1662
     21 C          67.6000   94.5240    8.3177 C.3     1  UNL1        0.0472
     22 C          68.4387   92.4022    9.5604 C.3     1  UNL1        0.0472
     23 C          66.3454   85.6331   14.6109 C.3     1  UNL1        0.0050
     24 C          65.1078   86.4804   14.5935 C.3     1  UNL1        0.0261
     25 C          64.3303   83.6378   15.1551 C.3     1  UNL1        0.0433
     26 C          63.6760   82.8623   14.0503 C.3     1  UNL1        0.0768
     27 N          63.4124   83.5185   12.7274 N.3     1  UNL1       -0.2724
     28 C          64.1071   83.0241   11.4934 C.3     1  UNL1        0.0725
     29 C          63.8434   83.6803   10.1706 C.3     1  UNL1        0.0229
     30 C          62.8851   84.8308   10.0818 C.3     1  UNL1        0.0393
     31 C          62.1905   85.3252   11.3159 C.3     1  UNL1        0.0229
     32 C          62.4541   84.6690   12.6387 C.3     1  UNL1        0.0725
     33 C          62.6215   85.4870    8.7589 C.2     1  UNL1        0.0501
     34 O          62.0457   86.8712    8.7098 O.co2   1  UNL1       -0.5492
     35 O          62.9337   84.7590    7.4852 O.co2   1  UNL1       -0.5492
@<TRIPOS>UNITY_ATOM_ATTR
34 1
charge -1
@<TRIPOS>BOND
     1    23    24    1
     2    24     1    1
     3     1     2   ar
     4     2    25    1
     5    25    26    1
     6    26    27    1
     7    27    28    1
     8    28    29    1
     9    29    30    1
    10    30    33    1
    11    33    34   ar
    12    33    35   ar
    13    30    31    1
    14    31    32    1
    15     2     3   ar
    16     3     4   ar
    17     4     5   ar
    18     5     6   ar
    19     6     7    1
    20     7     8   ar
    21     8     9   ar
    22     9    10   ar
    23    10    12    1
    24    12    13   ar
    25    13    14   ar
    26    14    15   ar
    27    15    19    1
    28    19    20    1
    29    20    21    1
    30    20    22    1
    31    15    16   ar
    32    16    17    1
    33    16    18   ar
    34    10    11   ar
    35     6     1   ar
    36    11     7   ar
    37    32    27    1
    38    18    12   ar
@<TRIPOS>MOLECULE
*****
 35 38 0 0 0
SMALL
GASTEIGER

@<TRIPOS>ATOM
      1 C          63.6094   86.8931   15.4516 C.ar    1  UNL1       -0.0231
      2 C          63.2572   85.4844   15.8277 C.ar    1  UNL1       -0.0246
      3 C          62.6963   85.1889   17.1871 C.ar    1  UNL1       -0.0045
      4 C          62.4875   86.3021   18.1705 C.ar    1  UNL1       -0.0002
      5 C          62.8397   87.7108   17.7945 C.ar    1  UNL1        0.0027
      6 C          63.4006   88.0064   16.4350 C.ar    1  UNL1        0.0322
      7 C          63.7528   89.4152   16.0591 C.ar    1  UNL1        0.1700
      8 N          63.4342   90.6460   16.8550 N.ar    1  UNL1       -0.1885
      9 S          63.9699   91.8320   16.1090 S.2     1  UNL1        0.0341
     10 C          64.6195   91.3341   14.8519 C.ar    1  UNL1        0.1299
     11 N          64.4853   89.8404   14.8211 N.ar    1  UNL1       -0.2181
     12 C          65.2863   92.1811   13.8089 C.ar    1  UNL1        0.0263
     13 C          66.3446   93.1667   14.2072 C.ar    1  UNL1        0.0052
     14 C          67.0113   94.0137   13.1642 C.ar    1  UNL1        0.0378
     15 C          66.6198   93.8752   11.7228 C.ar    1  UNL1        0.1488
     16 C          65.5615   92.8897   11.3245 C.ar    1  UNL1        0.0916
     17 CL         65.1699   92.7512    9.8831 Cl      1  UNL1       -0.0791
     18 C          64.8947   92.0426   12.3675 C.ar    1  UNL1        0.0165
     19 O          67.2865   94.7223   10.6798 O.3     1  UNL1       -0.4783
     20 C          66.7475   96.0860   10.3642 C.3     1  UNL1        0.1662
     21 C          65.6973   96.6991   11.2425 C.3     1  UNL1        0.0472
     22 C          67.2586   96.8369    9.1705 C.3     1  UNL1        0.0472
     23 C          63.2567   87.2705   12.9054 C.3     1  UNL1        0.0050
     24 C          64.1703   87.1887   14.0922 C.3     1  UNL1        0.0261
     25 C          63.4660   84.3711   14.8442 C.3     1  UNL1        0.0433
     26 C          62.6004   83.1475   14.9017 C.3     1  UNL1        0.0768
     27 N          62.6554   82.1371   13.7943 N.3     1  UNL1       -0.2724
     28 C          62.3895   80.6899   14.0856 C.3     1  UNL1        0.0725
     29 C          62.4446   79.6797   12.9782 C.3     1  UNL1        0.0229
     30 C          62.7656   80.1166   11.5796 C.3     1  UNL1        0.0393
     31 C          63.0316   81.5637   11.2884 C.3     1  UNL1        0.0229
     32 C          62.9765   82.5740   12.3957 C.3     1  UNL1        0.0725
     33 C          62.8207   79.1062   10.4723 C.2     1  UNL1        0.0501
     34 O          62.8502   79.5607    9.0431 O.co2   1  UNL1       -0.5492
     35 O          62.8462   77.6414   10.7941 O.co2   1  UNL1       -0.5492
@<TRIPOS>UNITY_ATOM_ATTR
34 1
charge -1
@<TRIPOS>BOND
     1    23    24    1
     2    24     1    1
     3     1     2   ar
     4     2    25    1
     5    25    26    1
     6    26    27    1
     7    27    28    1
     8    28    29    1
     9    29    30    1
    10    30    33    1
    11    33    34   ar
    12    33    35   ar
    13    30    31    1
    14    31    32    1
    15     2     3   ar
    16     3     4   ar
    17     4     5   ar
    18     5     6   ar
    19     6     7    1
    20     7     8   ar
    21     8     9   ar
    22     9    10   ar
    23    10    12    1
    24    12    13   ar
    25    13    14   ar
    26    14    15   ar
    27    15    19    1
    28    19    20    1
    29    20    21    1
    30    20    22    1
    31    15    16   ar
    32    16    17    1
    33    16    18   ar
    34    10    11   ar
    35     6     1   ar
    36    11     7   ar
    37    32    27    1
    38    18    12   ar
@<TRIPOS>MOLECULE
*****
 35 38 0 0 0
SMALL
GASTEIGER

@<TRIPOS>ATOM
      1 C          61.6743   88.4383   10.5517 C.ar    1  UNL1       -0.0231
      2 C          62.4821   87.8156   11.6515 C.ar    1  UNL1       -0.0246
      3 C          62.6812   86.3293   11.6867 C.ar    1  UNL1       -0.0045
      4 C          62.0724   85.4657   10.6220 C.ar    1  UNL1       -0.0002
      5 C          61.2646   86.0884    9.5222 C.ar    1  UNL1        0.0027
      6 C          61.0655   87.5747    9.4870 C.ar    1  UNL1        0.0322
      7 C          60.2577   88.1974    8.3872 C.ar    1  UNL1        0.1700
      8 N          58.8393   87.8595    8.0352 N.ar    1  UNL1       -0.1885
      9 S          58.4314   88.7206    6.8767 S.2     1  UNL1        0.0341
     10 C          59.5978   89.5907    6.5126 C.ar    1  UNL1        0.1299
     11 N          60.7264   89.2674    7.4462 N.ar    1  UNL1       -0.2181
     12 C          59.6298   90.6059    5.4089 C.ar    1  UNL1        0.0263
     13 C          58.3560   91.2443    4.9399 C.ar    1  UNL1        0.0052
     14 C          58.3880   92.2596    3.8362 C.ar    1  UNL1        0.0378
     15 C          59.6938   92.6364    3.2014 C.ar    1  UNL1        0.1488
     16 C          60.9676   91.9980    3.6703 C.ar    1  UNL1        0.0916
     17 CL         62.2734   92.3748    3.0355 Cl      1  UNL1       -0.0791
     18 C          60.9356   90.9827    4.7741 C.ar    1  UNL1        0.0165
     19 O          59.7258   93.6516    2.0976 O.3     1  UNL1       -0.4783
     20 C          59.4481   93.2321    0.6845 C.3     1  UNL1        0.1662
     21 C          58.4129   93.9573   -0.1235 C.3     1  UNL1        0.0472
     22 C          60.2053   92.0874    0.0792 C.3     1  UNL1        0.0472
     23 C          60.1368   90.5103   10.8566 C.3     1  UNL1        0.0050
     24 C          61.4752   89.9246   10.5166 C.3     1  UNL1        0.0261
     25 C          63.0909   88.6792   12.7163 C.3     1  UNL1        0.0433
     26 C          63.2803   90.1473   12.4738 C.3     1  UNL1        0.0768
     27 N          64.4650   90.8574   13.0591 N.3     1  UNL1       -0.2724
     28 C          65.2204   91.8591   12.2370 C.3     1  UNL1        0.0725
     29 C          66.4049   92.5691   12.8223 C.3     1  UNL1        0.0229
     30 C          66.8341   92.2775   14.2297 C.3     1  UNL1        0.0393
     31 C          66.0786   91.2758   15.0518 C.3     1  UNL1        0.0229
     32 C          64.8941   90.5658   14.4665 C.3     1  UNL1        0.0725
     33 C          68.0187   92.9876   14.8150 C.2     1  UNL1        0.0501
     34 O          69.4003   92.6726   14.3231 O.co2   1  UNL1       -0.5492
     35 O          67.8217   94.0127   15.8922 O.co2   1  UNL1       -0.5492
@<TRIPOS>UNITY_ATOM_ATTR
34 1
charge -1
@<TRIPOS>BOND
     1    23    24    1
     2    24     1    1
     3     1     2   ar
     4     2    25    1
     5    25    26    1
     6    26    27    1
     7    27    28    1
     8    28    29    1
     9    29    30    1
    10    30    33    1
    11    33    34   ar
    12    33    35   ar
    13    30    31    1
    14    31    32    1
    15     2     3   ar
    16     3     4   ar
    17     4     5   ar
    18     5     6   ar
    19     6     7    1
    20     7     8   ar
    21     8     9   ar
    22     9    10   ar
    23    10    12    1
    24    12    13   ar
    25    13    14   ar
    26    14    15   ar
    27    15    19    1
    28    19    20    1
    29    20    21    1
    30    20    22    1
    31    15    16   ar
    32    16    17    1
    33    16    18   ar
    34    10    11   ar
    35     6     1   ar
    36    11     7   ar
    37    32    27    1
    38    18    12   ar
@<TRIPOS>MOLECULE
*****
 35 38 0 0 0
SMALL
GASTEIGER

@<TRIPOS>ATOM
      1 C          63.5601   83.1890   13.4324 C.ar    1  UNL1       -0.0231
      2 C          63.4209   81.9139   12.6548 C.ar    1  UNL1       -0.0246
      3 C          62.3671   80.9158   13.0333 C.ar    1  UNL1       -0.0045
      4 C          61.4524   81.1928   14.1894 C.ar    1  UNL1       -0.0002
      5 C          61.5916   82.4679   14.9670 C.ar    1  UNL1        0.0027
      6 C          62.6454   83.4660   14.5885 C.ar    1  UNL1        0.0322
      7 C          62.7846   84.7411   15.3661 C.ar    1  UNL1        0.1700
      8 N          62.4415   84.9330   16.8137 N.ar    1  UNL1       -0.1885
      9 S          62.7361   86.3587   17.1749 S.2     1  UNL1        0.0341
     10 C          63.2613   87.0481   15.9506 C.ar    1  UNL1        0.1299
     11 N          63.2912   86.0483   14.8327 N.ar    1  UNL1       -0.2181
     12 C          63.6826   88.4848   15.8600 C.ar    1  UNL1        0.0263
     13 C          63.3661   89.4312   16.9800 C.ar    1  UNL1        0.0052
     14 C          63.7874   90.8679   16.8894 C.ar    1  UNL1        0.0378
     15 C          64.5251   91.3584   15.6789 C.ar    1  UNL1        0.1488
     16 C          64.8415   90.4120   14.5590 C.ar    1  UNL1        0.0916
     17 CL         65.5792   90.9025   13.3485 Cl      1  UNL1       -0.0791
     18 C          64.4203   88.9753   14.6495 C.ar    1  UNL1        0.0165
     19 O          64.9463   92.7951   15.5884 O.3     1  UNL1       -0.4783
     20 C          66.3799   93.1404   15.3134 C.3     1  UNL1        0.1662
     21 C          67.4650   92.5953   16.1941 C.3     1  UNL1        0.0472
     22 C          66.7286   94.0308   14.1577 C.3     1  UNL1        0.0472
     23 C          65.7726   84.4391   13.9724 C.3     1  UNL1        0.0050
     24 C          64.6139   84.1870   13.0539 C.3     1  UNL1        0.0261
     25 C          64.3356   81.6368   11.4986 C.3     1  UNL1        0.0433
     26 C          63.9730   82.1152   10.1240 C.3     1  UNL1        0.0768
     27 N          63.3622   83.4727    9.9392 N.3     1  UNL1       -0.2724
     28 C          62.4290   84.0229   10.9766 C.3     1  UNL1        0.0725
     29 C          61.8184   85.3804   10.7917 C.3     1  UNL1        0.0229
     30 C          62.1409   86.1877    9.5693 C.3     1  UNL1        0.0393
     31 C          63.0742   85.6376    8.5319 C.3     1  UNL1        0.0229
     32 C          63.6848   84.2801    8.7168 C.3     1  UNL1        0.0725
     33 C          61.5302   87.5453    9.3845 C.2     1  UNL1        0.0501
     34 O          62.2045   88.7556    9.9594 O.co2   1  UNL1       -0.5492
     35 O          60.2454   87.6925    8.6247 O.co2   1  UNL1       -0.5492
@<TRIPOS>UNITY_ATOM_ATTR
34 1
charge -1
@<TRIPOS>BOND
     1    23    24    1
     2    24     1    1
     3     1     2   ar
     4     2    25    1
     5    25    26    1
     6    26    27    1
     7    27    28    1
     8    28    29    1
     9    29    30    1
    10    30    33    1
    11    33    34   ar
    12    33    35   ar
    13    30    31    1
    14    31    32    1
    15     2     3   ar
    16     3     4   ar
    17     4     5   ar
    18     5     6   ar
    19     6     7    1
    20     7     8   ar
    21     8     9   ar
    22     9    10   ar
    23    10    12    1
    24    12    13   ar
    25    13    14   ar
    26    14    15   ar
    27    15    19    1
    28    19    20    1
    29    20    21    1
    30    20    22    1
    31    15    16   ar
    32    16    17    1
    33    16    18   ar
    34    10    11   ar
    35     6     1   ar
    36    11     7   ar
    37    32    27    1
    38    18    12   ar
@<TRIPOS>MOLECULE
*****
 35 38 0 0 0
SMALL
GASTEIGER

@<TRIPOS>ATOM
      1 C          60.5079   88.0314    8.9898 C.ar    1  UNL1       -0.0231
      2 C          60.7688   87.5174   10.3746 C.ar    1  UNL1       -0.0246
      3 C          60.5552   88.4123   11.5593 C.ar    1  UNL1       -0.0045
      4 C          60.0808   89.8211   11.3593 C.ar    1  UNL1       -0.0002
      5 C          59.8199   90.3350    9.9745 C.ar    1  UNL1        0.0027
      6 C          60.0334   89.4402    8.7897 C.ar    1  UNL1        0.0322
      7 C          59.7725   89.9542    7.4049 C.ar    1  UNL1        0.1700
      8 N          58.4586   89.9136    6.6823 N.ar    1  UNL1       -0.1885
      9 S          58.6538   90.5334    5.3304 S.2     1  UNL1        0.0341
     10 C          60.0883   90.9570    5.2173 C.ar    1  UNL1        0.1299
     11 N          60.7797   90.5991    6.4995 N.ar    1  UNL1       -0.2181
     12 C          60.7204   91.6219    4.0306 C.ar    1  UNL1        0.0263
     13 C          62.1397   91.3063    3.6618 C.ar    1  UNL1        0.0052
     14 C          62.7718   91.9711    2.4751 C.ar    1  UNL1        0.0378
     15 C          61.9846   92.9516    1.6571 C.ar    1  UNL1        0.1488
     16 C          60.5653   93.2671    2.0258 C.ar    1  UNL1        0.0916
     17 CL         59.7781   94.2476    1.2078 Cl      1  UNL1       -0.0791
     18 C          59.9332   92.6023    3.2126 C.ar    1  UNL1        0.0165
     19 O          62.6167   93.6164    0.4703 O.3     1  UNL1       -0.4783
     20 C          63.5672   94.7596    0.6691 C.3     1  UNL1        0.1662
     21 C          64.9049   94.7495   -0.0096 C.3     1  UNL1        0.0472
     22 C          63.1802   95.9130    1.5466 C.3     1  UNL1        0.0472
     23 C          59.7309   86.0538    7.4947 C.3     1  UNL1        0.0050
     24 C          60.7215   87.1365    7.8050 C.3     1  UNL1        0.0261
     25 C          61.2433   86.1085   10.5747 C.3     1  UNL1        0.0433
     26 C          62.3669   85.8236   11.5268 C.3     1  UNL1        0.0768
     27 N          62.5399   84.4448   12.0917 N.3     1  UNL1       -0.2724
     28 C          62.7514   83.2787   11.1723 C.3     1  UNL1        0.0725
     29 C          62.9244   81.9000   11.7372 C.3     1  UNL1        0.0229
     30 C          62.8859   81.6874   13.2215 C.3     1  UNL1        0.0393
     31 C          62.6744   82.8535   14.1410 C.3     1  UNL1        0.0229
     32 C          62.5014   84.2322   13.5760 C.3     1  UNL1        0.0725
     33 C          63.0589   80.3086   13.7865 C.2     1  UNL1        0.0501
     34 O          62.0209   79.2569   13.5288 O.co2   1  UNL1       -0.5492
     35 O          64.2698   79.9816   14.6090 O.co2   1  UNL1       -0.5492
@<TRIPOS>UNITY_ATOM_ATTR
34 1
charge -1
@<TRIPOS>BOND
     1    23    24    1
     2    24     1    1
     3     1     2   ar
     4     2    25    1
     5    25    26    1
     6    26    27    1
     7    27    28    1
     8    28    29    1
     9    29    30    1
    10    30    33    1
    11    33    34   ar
    12    33    35   ar
    13    30    31    1
    14    31    32    1
    15     2     3   ar
    16     3     4   ar
    17     4     5   ar
    18     5     6   ar
    19     6     7    1
    20     7     8   ar
    21     8     9   ar
    22     9    10   ar
    23    10    12    1
    24    12    13   ar
    25    13    14   ar
    26    14    15   ar
    27    15    19    1
    28    19    20    1
    29    20    21    1
    30    20    22    1
    31    15    16   ar
    32    16    17    1
    33    16    18   ar
    34    10    11   ar
    35     6     1   ar
    36    11     7   ar
    37    32    27    1
    38    18    12   ar
