@<TRIPOS>MOLECULE
*****
 36 40 0 0 0
SMALL
GASTEIGER

@<TRIPOS>ATOM
      1 N          65.4408   93.0184   11.7918 N.ar    1  UNL1       -0.2757
      2 C          66.3500   93.7213   12.7559 C.ar    1  UNL1        0.3342
      3 O          67.1910   94.8728   12.2902 O.2     1  UNL1       -0.2462
      4 N          66.4182   93.2727   14.1856 N.ar    1  UNL1       -0.2467
      5 C          67.3274   93.9755   15.1496 C.3     1  UNL1        0.1382
      6 C          65.5772   92.1212   14.6513 C.ar    1  UNL1        0.2663
      7 O          65.6454   91.6726   16.0810 O.2     1  UNL1       -0.2668
      8 C          64.6681   91.4184   13.6873 C.ar    1  UNL1        0.0830
      9 C          63.7281   90.2615   13.8554 C.ar    1  UNL1        0.0644
     10 C          63.0790   89.9952   12.5296 C.ar    1  UNL1        0.0176
     11 S          63.6178   90.9874   11.5420 S.2     1  UNL1       -0.0734
     12 C          64.5998   91.8670   12.2575 C.ar    1  UNL1        0.0982
     13 C          63.4807   89.5041   15.1262 C.2     1  UNL1        0.2716
     14 O          62.9859   90.2251   16.3449 O.2     1  UNL1       -0.2678
     15 N          63.7282   88.0255   15.1784 N.am    1  UNL1       -0.1620
     16 C          63.5270   87.1394   16.3717 C.3     1  UNL1        0.1561
     17 C          63.8947   85.7398   15.9772 C.3     1  UNL1        0.1648
     18 O          63.8431   84.5313   16.8642 O.3     1  UNL1       -0.3800
     19 C          64.3233   85.7609   14.5399 C.3     1  UNL1        0.2022
     20 O          64.2203   87.1735   14.0462 O.3     1  UNL1       -0.2601
     21 H          64.1320   83.7513   16.3651 H       1  UNL1        0.2105
     22 C          65.3727   93.4670   10.3621 C.3     1  UNL1        0.1109
     23 C          66.8437   94.8795    8.7524 C.3     1  UNL1        0.0020
     24 C          66.6342   93.6388    9.5690 C.3     1  UNL1        0.0228
     25 C          67.6862   92.5698    9.5923 C.3     1  UNL1        0.0020
     26 C          62.0686   88.9246   12.2418 C.3     1  UNL1        0.0595
     27 C          61.3747   88.8860   10.9125 C.ar    1  UNL1       -0.0143
     28 C          60.5178   90.0386   10.4800 C.ar    1  UNL1        0.0168
     29 C          59.8239   90.0000    9.1508 C.ar    1  UNL1        0.0985
     30 N          59.9868   88.8088    8.2540 N.ar    1  UNL1       -0.2439
     31 C          60.8438   87.6560    8.6864 C.ar    1  UNL1        0.0810
     32 C          61.0068   86.4648    7.7896 C.ar    1  UNL1        0.0191
     33 C          61.8637   85.3121    8.2221 C.ar    1  UNL1        0.0015
     34 C          62.5576   85.3507    9.5514 C.ar    1  UNL1        0.0001
     35 C          62.3946   86.5420   10.4482 C.ar    1  UNL1        0.0012
     36 C          61.5377   87.6946   10.0157 C.ar    1  UNL1        0.0141
@<TRIPOS>BOND
     1    23    24    1
     2    24    25    1
     3    24    22    1
     4    22     1    1
     5     1     2   ar
     6     2     3    2
     7     2     4   ar
     8     4     5    1
     9     4     6   ar
    10     6     7    2
    11     6     8   ar
    12     8     9   ar
    13     9    13    1
    14    13    14    2
    15    13    15   am
    16    15    16    1
    17    16    17    1
    18    17    18    1
    19    17    19    1
    20    19    20    1
    21     9    10   ar
    22    10    26    1
    23    26    27    1
    24    27    28   ar
    25    28    29   ar
    26    29    30   ar
    27    30    31   ar
    28    31    32   ar
    29    32    33   ar
    30    33    34   ar
    31    34    35   ar
    32    35    36   ar
    33    10    11   ar
    34    11    12   ar
    35    12     1   ar
    36    12     8   ar
    37    20    15    1
    38    36    27   ar
    39    36    31   ar
    40    18    21    1
@<TRIPOS>MOLECULE
*****
 36 40 0 0 0
SMALL
GASTEIGER

@<TRIPOS>ATOM
      1 N          61.2759   88.0524   10.0872 N.ar    1  UNL1       -0.2757
      2 C          60.7703   87.5256    8.7769 C.ar    1  UNL1        0.3342
      3 O          59.9455   88.4039    7.8835 O.2     1  UNL1       -0.2462
      4 N          61.0895   86.1205    8.3600 N.ar    1  UNL1       -0.2467
      5 C          60.5839   85.5938    7.0497 C.3     1  UNL1        0.1382
      6 C          61.9143   85.2422    9.2534 C.ar    1  UNL1        0.2663
      7 O          62.2336   83.8371    8.8365 O.2     1  UNL1       -0.2668
      8 C          62.4199   85.7689   10.5637 C.ar    1  UNL1        0.0830
      9 C          63.2491   85.1416   11.6449 C.ar    1  UNL1        0.0644
     10 C          63.4423   86.1590   12.7301 C.ar    1  UNL1        0.0176
     11 S          62.7325   87.4151   12.3195 S.2     1  UNL1       -0.0734
     12 C          62.1007   87.1740   10.9806 C.ar    1  UNL1        0.0982
     13 C          63.7900   83.7426   11.6415 C.2     1  UNL1        0.2716
     14 O          64.8781   83.3615   10.6819 O.2     1  UNL1       -0.2678
     15 N          63.2429   82.7246   12.5977 N.am    1  UNL1       -0.1620
     16 C          63.6821   81.2948   12.7101 C.3     1  UNL1        0.1561
     17 C          62.8712   80.6443   13.7912 C.3     1  UNL1        0.1648
     18 O          62.9814   79.2166   14.2381 O.3     1  UNL1       -0.3800
     19 C          61.9306   81.6720   14.3472 C.3     1  UNL1        0.2022
     20 O          62.1604   82.9578   13.6096 O.3     1  UNL1       -0.2601
     21 H          62.3451   79.0510   14.9513 H       1  UNL1        0.2105
     22 C          60.9566   89.4574   10.5041 C.3     1  UNL1        0.1109
     23 C          59.2479   91.1271   11.5252 C.3     1  UNL1        0.0020
     24 C          59.7702   89.7283   11.3811 C.3     1  UNL1        0.0228
     25 C          59.1060   88.6005   12.1138 C.3     1  UNL1        0.0020
     26 C          64.2104   85.9560   14.0024 C.3     1  UNL1        0.0595
     27 C          63.7311   86.5862   15.2764 C.ar    1  UNL1       -0.0143
     28 C          63.1587   85.7305   16.3673 C.ar    1  UNL1        0.0168
     29 C          62.6795   86.3606   17.6414 C.ar    1  UNL1        0.0985
     30 N          62.7726   87.8464   17.8246 N.ar    1  UNL1       -0.2439
     31 C          63.3451   88.7022   16.7337 C.ar    1  UNL1        0.0810
     32 C          63.4383   90.1880   16.9169 C.ar    1  UNL1        0.0191
     33 C          64.0107   91.0437   15.8260 C.ar    1  UNL1        0.0015
     34 C          64.4899   90.4136   14.5519 C.ar    1  UNL1        0.0001
     35 C          64.3968   88.9278   14.3687 C.ar    1  UNL1        0.0012
     36 C          63.8243   88.0721   15.4596 C.ar    1  UNL1        0.0141
@<TRIPOS>BOND
     1    23    24    1
     2    24    25    1
     3    24    22    1
     4    22     1    1
     5     1     2   ar
     6     2     3    2
     7     2     4   ar
     8     4     5    1
     9     4     6   ar
    10     6     7    2
    11     6     8   ar
    12     8     9   ar
    13     9    13    1
    14    13    14    2
    15    13    15   am
    16    15    16    1
    17    16    17    1
    18    17    18    1
    19    17    19    1
    20    19    20    1
    21     9    10   ar
    22    10    26    1
    23    26    27    1
    24    27    28   ar
    25    28    29   ar
    26    29    30   ar
    27    30    31   ar
    28    31    32   ar
    29    32    33   ar
    30    33    34   ar
    31    34    35   ar
    32    35    36   ar
    33    10    11   ar
    34    11    12   ar
    35    12     1   ar
    36    12     8   ar
    37    20    15    1
    38    36    27   ar
    39    36    31   ar
    40    18    21    1
@<TRIPOS>MOLECULE
*****
 36 40 0 0 0
SMALL
GASTEIGER

@<TRIPOS>ATOM
      1 N          62.7489   87.7480   11.1295 N.ar    1  UNL1       -0.2757
      2 C          62.5927   86.6137   12.0986 C.ar    1  UNL1        0.3342
      3 O          62.0174   85.3074   11.6376 O.2     1  UNL1       -0.2462
      4 N          63.0116   86.7859   13.5285 N.ar    1  UNL1       -0.2467
      5 C          62.8554   85.6516   14.4975 C.3     1  UNL1        0.1382
      6 C          63.5869   88.0922   13.9894 C.ar    1  UNL1        0.2663
      7 O          64.0059   88.2644   15.4194 O.2     1  UNL1       -0.2668
      8 C          63.7432   89.2265   13.0204 C.ar    1  UNL1        0.0830
      9 C          64.2743   90.6198   13.1833 C.ar    1  UNL1        0.0644
     10 C          64.1836   91.3088   11.8540 C.ar    1  UNL1        0.0176
     11 S          63.5964   90.3413   10.8695 S.2     1  UNL1       -0.0734
     12 C          63.3242   89.0544   11.5904 C.ar    1  UNL1        0.0982
     13 C          64.8033   91.2189   14.4526 C.2     1  UNL1        0.2716
     14 O          63.8878   91.4262   15.6226 O.2     1  UNL1       -0.2678
     15 N          66.2478   91.6107   14.5520 N.am    1  UNL1       -0.1620
     16 C          66.9163   92.2177   15.7497 C.3     1  UNL1        0.1561
     17 C          68.3591   92.4464   15.4091 C.3     1  UNL1        0.1648
     18 O          69.3966   93.0371   16.3172 O.3     1  UNL1       -0.3800
     19 C          68.5822   91.9808   14.0007 C.3     1  UNL1        0.2022
     20 O          67.2774   91.4643   13.4710 O.3     1  UNL1       -0.2601
     21 H          70.2479   93.0751   15.8539 H       1  UNL1        0.2105
     22 C          62.3299   87.5759    9.6995 C.3     1  UNL1        0.1109
     23 C          60.1680   89.0158    9.6452 C.3     1  UNL1        0.0020
     24 C          60.8898   87.7431    9.3146 C.3     1  UNL1        0.0228
     25 C          60.1716   86.6376    8.5991 C.3     1  UNL1        0.0020
     26 C          64.6059   92.7179   11.5606 C.3     1  UNL1        0.0595
     27 C          65.8783   92.9787   10.8103 C.ar    1  UNL1       -0.0143
     28 C          66.9672   91.9472   10.7989 C.ar    1  UNL1        0.0168
     29 C          68.2396   92.2080   10.0486 C.ar    1  UNL1        0.0985
     30 N          68.4231   93.5003    9.3096 N.ar    1  UNL1       -0.2439
     31 C          67.3341   94.5320    9.3209 C.ar    1  UNL1        0.0810
     32 C          67.5176   95.8243    8.5820 C.ar    1  UNL1        0.0191
     33 C          66.4287   96.8558    8.5934 C.ar    1  UNL1        0.0015
     34 C          65.1563   96.5950    9.3437 C.ar    1  UNL1        0.0001
     35 C          64.9728   95.3027   10.0827 C.ar    1  UNL1        0.0012
     36 C          66.0618   94.2711   10.0713 C.ar    1  UNL1        0.0141
@<TRIPOS>BOND
     1    23    24    1
     2    24    25    1
     3    24    22    1
     4    22     1    1
     5     1     2   ar
     6     2     3    2
     7     2     4   ar
     8     4     5    1
     9     4     6   ar
    10     6     7    2
    11     6     8   ar
    12     8     9   ar
    13     9    13    1
    14    13    14    2
    15    13    15   am
    16    15    16    1
    17    16    17    1
    18    17    18    1
    19    17    19    1
    20    19    20    1
    21     9    10   ar
    22    10    26    1
    23    26    27    1
    24    27    28   ar
    25    28    29   ar
    26    29    30   ar
    27    30    31   ar
    28    31    32   ar
    29    32    33   ar
    30    33    34   ar
    31    34    35   ar
    32    35    36   ar
    33    10    11   ar
    34    11    12   ar
    35    12     1   ar
    36    12     8   ar
    37    20    15    1
    38    36    27   ar
    39    36    31   ar
    40    18    21    1
@<TRIPOS>MOLECULE
*****
 36 40 0 0 0
SMALL
GASTEIGER

@<TRIPOS>ATOM
      1 N          64.2979   90.1313   13.1879 N.ar    1  UNL1       -0.2757
      2 C          64.4244   91.4250   12.4392 C.ar    1  UNL1        0.3342
      3 O          65.1844   92.5691   13.0420 O.2     1  UNL1       -0.2462
      4 N          63.7910   91.5745   11.0878 N.ar    1  UNL1       -0.2467
      5 C          63.9176   92.8681   10.3392 C.3     1  UNL1        0.1382
      6 C          63.0310   90.4303   10.4850 C.ar    1  UNL1        0.2663
      7 O          62.3976   90.5798    9.1336 O.2     1  UNL1       -0.2668
      8 C          62.9044   89.1367   11.2336 C.ar    1  UNL1        0.0830
      9 C          62.2219   87.8444   10.8961 C.ar    1  UNL1        0.0644
     10 C          62.4335   86.8961   12.0390 C.ar    1  UNL1        0.0176
     11 S          63.2468   87.6024   13.0828 S.2     1  UNL1       -0.0734
     12 C          63.5379   88.9872   12.5851 C.ar    1  UNL1        0.0982
     13 C          61.4613   87.5516    9.6368 C.2     1  UNL1        0.2716
     14 O          60.2724   88.3881    9.2671 O.2     1  UNL1       -0.2678
     15 N          61.8896   86.4224    8.7472 N.am    1  UNL1       -0.1620
     16 C          61.2309   86.0126    7.4635 C.3     1  UNL1        0.1561
     17 C          61.9861   84.8417    6.9081 C.3     1  UNL1        0.1648
     18 O          61.6710   84.1127    5.6356 O.3     1  UNL1       -0.3800
     19 C          63.1116   84.5278    7.8486 C.3     1  UNL1        0.2022
     20 O          63.0520   85.5047    8.9852 O.3     1  UNL1       -0.2601
     21 H          62.3118   83.3960    5.5064 H       1  UNL1        0.2105
     22 C          64.9313   89.9818   14.5393 C.3     1  UNL1        0.1109
     23 C          63.2420   89.3828   16.4202 C.3     1  UNL1        0.0020
     24 C          64.1687   90.3682   15.7719 C.3     1  UNL1        0.0228
     25 C          64.3329   91.7399   16.3562 C.3     1  UNL1        0.0020
     26 C          61.9216   85.4887   12.1232 C.3     1  UNL1        0.0595
     27 C          62.4299   84.5685   13.1932 C.ar    1  UNL1       -0.0143
     28 C          62.6747   85.0911   14.5777 C.ar    1  UNL1        0.0168
     29 C          63.1830   84.1710   15.6477 C.ar    1  UNL1        0.0985
     30 N          63.4465   82.7282   15.3332 N.ar    1  UNL1       -0.2439
     31 C          63.2017   82.2055   13.9486 C.ar    1  UNL1        0.0810
     32 C          63.4652   80.7628   13.6341 C.ar    1  UNL1        0.0191
     33 C          63.2204   80.2402   12.2496 C.ar    1  UNL1        0.0015
     34 C          62.7121   81.1603   11.1796 C.ar    1  UNL1        0.0001
     35 C          62.4486   82.6031   11.4941 C.ar    1  UNL1        0.0012
     36 C          62.6934   83.1257   12.8786 C.ar    1  UNL1        0.0141
@<TRIPOS>BOND
     1    23    24    1
     2    24    25    1
     3    24    22    1
     4    22     1    1
     5     1     2   ar
     6     2     3    2
     7     2     4   ar
     8     4     5    1
     9     4     6   ar
    10     6     7    2
    11     6     8   ar
    12     8     9   ar
    13     9    13    1
    14    13    14    2
    15    13    15   am
    16    15    16    1
    17    16    17    1
    18    17    18    1
    19    17    19    1
    20    19    20    1
    21     9    10   ar
    22    10    26    1
    23    26    27    1
    24    27    28   ar
    25    28    29   ar
    26    29    30   ar
    27    30    31   ar
    28    31    32   ar
    29    32    33   ar
    30    33    34   ar
    31    34    35   ar
    32    35    36   ar
    33    10    11   ar
    34    11    12   ar
    35    12     1   ar
    36    12     8   ar
    37    20    15    1
    38    36    27   ar
    39    36    31   ar
    40    18    21    1
@<TRIPOS>MOLECULE
*****
 36 40 0 0 0
SMALL
GASTEIGER

@<TRIPOS>ATOM
      1 N          57.4176   94.2066   -3.0562 N.ar    1  UNL1       -0.2757
      2 C          57.1744   93.9254   -4.5095 C.ar    1  UNL1        0.3342
      3 O          55.8128   93.5001   -4.9734 O.2     1  UNL1       -0.2462
      4 N          58.2927   94.0696   -5.4987 N.ar    1  UNL1       -0.2467
      5 C          58.0495   93.7884   -6.9518 C.3     1  UNL1        0.1382
      6 C          59.6542   94.4949   -5.0347 C.ar    1  UNL1        0.2663
      7 O          60.7725   94.6391   -6.0239 O.2     1  UNL1       -0.2668
      8 C          59.8975   94.7761   -3.5815 C.ar    1  UNL1        0.0830
      9 C          61.1242   95.2086   -2.8345 C.ar    1  UNL1        0.0644
     10 C          60.7640   95.3318   -1.3836 C.ar    1  UNL1        0.0176
     11 S          59.3147   94.9754   -1.2339 S.2     1  UNL1       -0.0734
     12 C          58.7791   94.6320   -2.5922 C.ar    1  UNL1        0.0982
     13 C          62.4741   95.4718   -3.4333 C.2     1  UNL1        0.2716
     14 O          63.0523   96.8554   -3.4003 O.2     1  UNL1       -0.2678
     15 N          63.2457   94.3513   -4.0650 N.am    1  UNL1       -0.1620
     16 C          64.5998   94.4618   -4.7006 C.3     1  UNL1        0.1561
     17 C          64.9897   93.1024   -5.2004 C.3     1  UNL1        0.1648
     18 O          66.2683   92.7547   -5.9035 O.3     1  UNL1       -0.3800
     19 C          63.8765   92.1516   -4.8737 C.3     1  UNL1        0.2022
     20 O          62.7986   92.9235   -4.1720 O.3     1  UNL1       -0.2601
     21 H          66.2713   91.8092   -6.1203 H       1  UNL1        0.2105
     22 C          56.2993   94.0625   -2.0670 C.3     1  UNL1        0.1109
     23 C          55.9316   96.5608   -1.4559 C.3     1  UNL1        0.0020
     24 C          55.3733   95.2139   -1.8087 C.3     1  UNL1        0.0228
     25 C          53.8891   95.0186   -1.9032 C.3     1  UNL1        0.0020
     26 C          61.6905   95.7397   -0.2767 C.3     1  UNL1        0.0595
     27 C          62.6988   94.7647    0.2550 C.ar    1  UNL1       -0.0143
     28 C          64.0928   94.7505   -0.2987 C.ar    1  UNL1        0.0168
     29 C          65.1011   93.7755    0.2330 C.ar    1  UNL1        0.0985
     30 N          64.7154   92.8147    1.3185 N.ar    1  UNL1       -0.2439
     31 C          63.3214   92.8289    1.8722 C.ar    1  UNL1        0.0810
     32 C          62.9357   91.8682    2.9577 C.ar    1  UNL1        0.0191
     33 C          61.5418   91.8825    3.5114 C.ar    1  UNL1        0.0015
     34 C          60.5335   92.8575    2.9796 C.ar    1  UNL1        0.0001
     35 C          60.9191   93.8182    1.8942 C.ar    1  UNL1        0.0012
     36 C          62.3131   93.8039    1.3405 C.ar    1  UNL1        0.0141
@<TRIPOS>BOND
     1    23    24    1
     2    24    25    1
     3    24    22    1
     4    22     1    1
     5     1     2   ar
     6     2     3    2
     7     2     4   ar
     8     4     5    1
     9     4     6   ar
    10     6     7    2
    11     6     8   ar
    12     8     9   ar
    13     9    13    1
    14    13    14    2
    15    13    15   am
    16    15    16    1
    17    16    17    1
    18    17    18    1
    19    17    19    1
    20    19    20    1
    21     9    10   ar
    22    10    26    1
    23    26    27    1
    24    27    28   ar
    25    28    29   ar
    26    29    30   ar
    27    30    31   ar
    28    31    32   ar
    29    32    33   ar
    30    33    34   ar
    31    34    35   ar
    32    35    36   ar
    33    10    11   ar
    34    11    12   ar
    35    12     1   ar
    36    12     8   ar
    37    20    15    1
    38    36    27   ar
    39    36    31   ar
    40    18    21    1
@<TRIPOS>MOLECULE
*****
 36 40 0 0 0
SMALL
GASTEIGER

@<TRIPOS>ATOM
      1 N          65.6494   91.3507   13.2812 N.ar    1  UNL1       -0.2757
      2 C          65.8071   92.5736   12.4269 C.ar    1  UNL1        0.3342
      3 O          66.8276   93.6127   12.7858 O.2     1  UNL1       -0.2462
      4 N          64.9442   92.7574   11.2138 N.ar    1  UNL1       -0.2467
      5 C          65.1018   93.9802   10.3596 C.3     1  UNL1        0.1382
      6 C          63.9236   91.7183   10.8550 C.ar    1  UNL1        0.2663
      7 O          63.0607   91.9020    9.6419 O.2     1  UNL1       -0.2668
      8 C          63.7659   90.4954   11.7092 C.ar    1  UNL1        0.0830
      9 C          62.8524   89.3102   11.6064 C.ar    1  UNL1        0.0644
     10 C          63.1506   88.3939   12.7560 C.ar    1  UNL1        0.0176
     11 S          64.2486   89.0128   13.5693 S.2     1  UNL1       -0.0734
     12 C          64.6289   90.3116   12.9224 C.ar    1  UNL1        0.0982
     13 C          61.8215   89.0814   10.5411 C.2     1  UNL1        0.2716
     14 O          60.7429   90.0980   10.3106 O.2     1  UNL1       -0.2678
     15 N          61.8693   87.8361    9.7063 N.am    1  UNL1       -0.1620
     16 C          60.9121   87.4721    8.6103 C.3     1  UNL1        0.1561
     17 C          61.3339   86.1472    8.0475 C.3     1  UNL1        0.1648
     18 O          60.6567   85.4071    6.9324 O.3     1  UNL1       -0.3800
     19 C          62.5518   85.6924    8.7957 C.3     1  UNL1        0.2022
     20 O          62.8827   86.7362    9.8209 O.3     1  UNL1       -0.2601
     21 H          61.1286   84.5769    6.7619 H       1  UNL1        0.2105
     22 C          66.5123   91.1670   14.4943 C.3     1  UNL1        0.1109
     23 C          65.0730   92.2533   16.3647 C.3     1  UNL1        0.0020
     24 C          66.3863   92.1098   15.6542 C.3     1  UNL1        0.0228
     25 C          67.5734   92.9089   16.1035 C.3     1  UNL1        0.0020
     26 C          62.4704   87.0880   13.0420 C.3     1  UNL1        0.0595
     27 C          63.2056   86.0036   13.7726 C.ar    1  UNL1       -0.0143
     28 C          63.8920   86.3065   15.0714 C.ar    1  UNL1        0.0168
     29 C          64.6272   85.2221   15.8019 C.ar    1  UNL1        0.0985
     30 N          64.6759   83.8349   15.2336 N.ar    1  UNL1       -0.2439
     31 C          63.9894   83.5319   13.9347 C.ar    1  UNL1        0.0810
     32 C          64.0382   82.1446   13.3664 C.ar    1  UNL1        0.0191
     33 C          63.3518   81.8417   12.0675 C.ar    1  UNL1        0.0015
     34 C          62.6166   82.9261   11.3370 C.ar    1  UNL1        0.0001
     35 C          62.5679   84.3134   11.9053 C.ar    1  UNL1        0.0012
     36 C          63.2543   84.6163   13.2042 C.ar    1  UNL1        0.0141
@<TRIPOS>BOND
     1    23    24    1
     2    24    25    1
     3    24    22    1
     4    22     1    1
     5     1     2   ar
     6     2     3    2
     7     2     4   ar
     8     4     5    1
     9     4     6   ar
    10     6     7    2
    11     6     8   ar
    12     8     9   ar
    13     9    13    1
    14    13    14    2
    15    13    15   am
    16    15    16    1
    17    16    17    1
    18    17    18    1
    19    17    19    1
    20    19    20    1
    21     9    10   ar
    22    10    26    1
    23    26    27    1
    24    27    28   ar
    25    28    29   ar
    26    29    30   ar
    27    30    31   ar
    28    31    32   ar
    29    32    33   ar
    30    33    34   ar
    31    34    35   ar
    32    35    36   ar
    33    10    11   ar
    34    11    12   ar
    35    12     1   ar
    36    12     8   ar
    37    20    15    1
    38    36    27   ar
    39    36    31   ar
    40    18    21    1
@<TRIPOS>MOLECULE
*****
 36 40 0 0 0
SMALL
GASTEIGER

@<TRIPOS>ATOM
      1 N          60.7716   86.8033    8.7979 N.ar    1  UNL1       -0.2757
      2 C          60.0813   87.9590    8.1361 C.ar    1  UNL1        0.3342
      3 O          59.2601   87.7347    6.9010 O.2     1  UNL1       -0.2462
      4 N          60.2123   89.3389    8.7093 N.ar    1  UNL1       -0.2467
      5 C          59.5221   90.4946    8.0475 C.3     1  UNL1        0.1382
      6 C          61.0335   89.5632    9.9443 C.ar    1  UNL1        0.2663
      7 O          61.1645   90.9432   10.5175 O.2     1  UNL1       -0.2668
      8 C          61.7238   88.4076   10.6061 C.ar    1  UNL1        0.0830
      9 C          62.5942   88.3226   11.8248 C.ar    1  UNL1        0.0644
     10 C          63.0012   86.8901   12.0048 C.ar    1  UNL1        0.0176
     11 S          62.3823   86.0898   10.8973 S.2     1  UNL1       -0.0734
     12 C          61.5928   87.0276   10.0329 C.ar    1  UNL1        0.0982
     13 C          62.9884   89.4689   12.7083 C.2     1  UNL1        0.2716
     14 O          62.5804   89.4780   14.1517 O.2     1  UNL1       -0.2678
     15 N          63.7906   90.6060   12.1485 N.am    1  UNL1       -0.1620
     16 C          64.2557   91.8140   12.9062 C.3     1  UNL1        0.1561
     17 C          65.0210   92.6893   11.9587 C.3     1  UNL1        0.1648
     18 O          65.6654   94.0014   12.2954 O.3     1  UNL1       -0.3800
     19 C          65.0290   92.0223   10.6152 C.3     1  UNL1        0.2022
     20 O          64.2685   90.7347   10.7325 O.3     1  UNL1       -0.2601
     21 H          66.0956   94.3626   11.5047 H       1  UNL1        0.2105
     22 C          60.6406   85.4234    8.2247 C.3     1  UNL1        0.1109
     23 C          63.1304   84.8540    7.7483 C.3     1  UNL1        0.0020
     24 C          61.6981   84.8901    7.3041 C.3     1  UNL1        0.0228
     25 C          61.3234   84.3930    5.9395 C.3     1  UNL1        0.0020
     26 C          63.8738   86.3524   13.0999 C.3     1  UNL1        0.0595
     27 C          63.4701   85.1114   13.8395 C.ar    1  UNL1       -0.0143
     28 C          63.0661   85.1957   15.2815 C.ar    1  UNL1        0.0168
     29 C          62.6624   83.9547   16.0211 C.ar    1  UNL1        0.0985
     30 N          62.6628   82.6294   15.3186 N.ar    1  UNL1       -0.2439
     31 C          63.0669   82.5450   13.8765 C.ar    1  UNL1        0.0810
     32 C          63.0673   81.2197   13.1740 C.ar    1  UNL1        0.0191
     33 C          63.4713   81.1354   11.7320 C.ar    1  UNL1        0.0015
     34 C          63.8750   82.3764   10.9924 C.ar    1  UNL1        0.0001
     35 C          63.8746   83.7017   11.6948 C.ar    1  UNL1        0.0012
     36 C          63.4705   83.7860   13.1369 C.ar    1  UNL1        0.0141
@<TRIPOS>BOND
     1    23    24    1
     2    24    25    1
     3    24    22    1
     4    22     1    1
     5     1     2   ar
     6     2     3    2
     7     2     4   ar
     8     4     5    1
     9     4     6   ar
    10     6     7    2
    11     6     8   ar
    12     8     9   ar
    13     9    13    1
    14    13    14    2
    15    13    15   am
    16    15    16    1
    17    16    17    1
    18    17    18    1
    19    17    19    1
    20    19    20    1
    21     9    10   ar
    22    10    26    1
    23    26    27    1
    24    27    28   ar
    25    28    29   ar
    26    29    30   ar
    27    30    31   ar
    28    31    32   ar
    29    32    33   ar
    30    33    34   ar
    31    34    35   ar
    32    35    36   ar
    33    10    11   ar
    34    11    12   ar
    35    12     1   ar
    36    12     8   ar
    37    20    15    1
    38    36    27   ar
    39    36    31   ar
    40    18    21    1
@<TRIPOS>MOLECULE
*****
 36 40 0 0 0
SMALL
GASTEIGER

@<TRIPOS>ATOM
      1 N          62.9676   83.8807   13.1579 N.ar    1  UNL1       -0.2757
      2 C          63.8352   83.6839   14.3658 C.ar    1  UNL1        0.3342
      3 O          64.0264   82.3097   14.9358 O.2     1  UNL1       -0.2462
      4 N          64.5114   84.8612   15.0034 N.ar    1  UNL1       -0.2467
      5 C          65.3789   84.6643   16.2111 C.3     1  UNL1        0.1382
      6 C          64.3201   86.2354   14.4333 C.ar    1  UNL1        0.2663
      7 O          64.9964   87.4127   15.0709 O.2     1  UNL1       -0.2668
      8 C          63.4527   86.4323   13.2256 C.ar    1  UNL1        0.0830
      9 C          63.0803   87.6587   12.4464 C.ar    1  UNL1        0.0644
     10 C          62.1739   87.2394   11.3272 C.ar    1  UNL1        0.0176
     11 S          61.9861   85.7538   11.4146 S.2     1  UNL1       -0.0734
     12 C          62.7764   85.2549   12.5879 C.ar    1  UNL1        0.0982
     13 C          63.5346   89.0587   12.7357 C.2     1  UNL1        0.2716
     14 O          64.0405   89.9280   11.6229 O.2     1  UNL1       -0.2678
     15 N          63.4829   89.5893   14.1377 N.am    1  UNL1       -0.1620
     16 C          63.9011   90.9611   14.5772 C.3     1  UNL1        0.1561
     17 C          63.6807   91.0609   16.0575 C.3     1  UNL1        0.1648
     18 O          63.9647   92.2603   16.9124 O.3     1  UNL1       -0.3800
     19 C          63.1263   89.7507   16.5330 C.3     1  UNL1        0.2022
     20 O          63.0041   88.8412   15.3465 O.3     1  UNL1       -0.2601
     21 H          63.7340   92.0627   17.8336 H       1  UNL1        0.2105
     22 C          62.2914   82.7034   12.5203 C.3     1  UNL1        0.1109
     23 C          62.8491   80.3639   11.5376 C.3     1  UNL1        0.0020
     24 C          63.0378   81.8521   11.5364 C.3     1  UNL1        0.0228
     25 C          63.9727   82.4887   10.5513 C.3     1  UNL1        0.0020
     26 C          61.5626   88.1464   10.3007 C.3     1  UNL1        0.0595
     27 C          60.7485   87.5703    9.1804 C.ar    1  UNL1       -0.0143
     28 C          59.3650   88.0861    8.9163 C.ar    1  UNL1        0.0168
     29 C          58.5509   87.5099    7.7960 C.ar    1  UNL1        0.0985
     30 N          59.1202   86.4179    6.9397 N.ar    1  UNL1       -0.2439
     31 C          60.5038   85.9020    7.2037 C.ar    1  UNL1        0.0810
     32 C          61.0732   84.8100    6.3474 C.ar    1  UNL1        0.0191
     33 C          62.4567   84.2941    6.6115 C.ar    1  UNL1        0.0015
     34 C          63.2708   84.8703    7.7319 C.ar    1  UNL1        0.0001
     35 C          62.7014   85.9623    8.5881 C.ar    1  UNL1        0.0012
     36 C          61.3179   86.4782    8.3241 C.ar    1  UNL1        0.0141
@<TRIPOS>BOND
     1    23    24    1
     2    24    25    1
     3    24    22    1
     4    22     1    1
     5     1     2   ar
     6     2     3    2
     7     2     4   ar
     8     4     5    1
     9     4     6   ar
    10     6     7    2
    11     6     8   ar
    12     8     9   ar
    13     9    13    1
    14    13    14    2
    15    13    15   am
    16    15    16    1
    17    16    17    1
    18    17    18    1
    19    17    19    1
    20    19    20    1
    21     9    10   ar
    22    10    26    1
    23    26    27    1
    24    27    28   ar
    25    28    29   ar
    26    29    30   ar
    27    30    31   ar
    28    31    32   ar
    29    32    33   ar
    30    33    34   ar
    31    34    35   ar
    32    35    36   ar
    33    10    11   ar
    34    11    12   ar
    35    12     1   ar
    36    12     8   ar
    37    20    15    1
    38    36    27   ar
    39    36    31   ar
    40    18    21    1
@<TRIPOS>MOLECULE
*****
 36 40 0 0 0
SMALL
GASTEIGER

@<TRIPOS>ATOM
      1 N          62.9720   89.1720   11.0463 N.ar    1  UNL1       -0.2757
      2 C          62.8020   87.8710   11.7734 C.ar    1  UNL1        0.3342
      3 O          62.0965   86.7267   11.1081 O.2     1  UNL1       -0.2462
      4 N          63.3375   87.7145   13.1657 N.ar    1  UNL1       -0.2467
      5 C          63.1675   86.4135   13.8928 C.3     1  UNL1        0.1382
      6 C          64.0431   88.8588   13.8310 C.ar    1  UNL1        0.2663
      7 O          64.5786   88.7023   15.2234 O.2     1  UNL1       -0.2668
      8 C          64.2131   90.1598   13.1040 C.ar    1  UNL1        0.0830
      9 C          64.8593   91.4541   13.5003 C.ar    1  UNL1        0.0644
     10 C          64.7232   92.4106   12.3529 C.ar    1  UNL1        0.0176
     11 S          63.9928   91.7075   11.2474 S.2     1  UNL1       -0.0734
     12 C          63.6776   90.3164   11.7116 C.ar    1  UNL1        0.0982
     13 C          65.5249   91.7414   14.8135 C.2     1  UNL1        0.2716
     14 O          64.7213   91.7292   16.0800 O.2     1  UNL1       -0.2678
     15 N          66.9939   92.0410   14.8601 N.am    1  UNL1       -0.1620
     16 C          67.7930   92.3455   16.0924 C.3     1  UNL1        0.1561
     17 C          69.2147   92.5813   15.6766 C.3     1  UNL1        0.1648
     18 O          70.3564   92.9170   16.5897 O.3     1  UNL1       -0.3800
     19 C          69.2944   92.4225   14.1871 C.3     1  UNL1        0.2022
     20 O          67.9218   92.0885   13.6825 O.3     1  UNL1       -0.2601
     21 H          71.1682   93.0184   16.0686 H       1  UNL1        0.2105
     22 C          62.4365   89.3286    9.6539 C.3     1  UNL1        0.1109
     23 C          60.1478   90.2981   10.4102 C.3     1  UNL1        0.0020
     24 C          60.9635   89.5053    9.4324 C.3     1  UNL1        0.0228
     25 C          60.3063   88.8893    8.2330 C.3     1  UNL1        0.0020
     26 C          65.2287   93.8224   12.3172 C.3     1  UNL1        0.0595
     27 C          65.7417   94.4031   11.0328 C.ar    1  UNL1       -0.0143
     28 C          65.1929   95.7037   10.5257 C.ar    1  UNL1        0.0168
     29 C          65.7059   96.2844    9.2414 C.ar    1  UNL1        0.0985
     30 N          66.7677   95.5646    8.4641 N.ar    1  UNL1       -0.2439
     31 C          67.3167   94.2639    8.9712 C.ar    1  UNL1        0.0810
     32 C          68.3785   93.5440    8.1939 C.ar    1  UNL1        0.0191
     33 C          68.9274   92.2435    8.7010 C.ar    1  UNL1        0.0015
     34 C          68.4144   91.6627    9.9854 C.ar    1  UNL1        0.0001
     35 C          67.3525   92.3826   10.7626 C.ar    1  UNL1        0.0012
     36 C          66.8036   93.6832   10.2556 C.ar    1  UNL1        0.0141
@<TRIPOS>BOND
     1    23    24    1
     2    24    25    1
     3    24    22    1
     4    22     1    1
     5     1     2   ar
     6     2     3    2
     7     2     4   ar
     8     4     5    1
     9     4     6   ar
    10     6     7    2
    11     6     8   ar
    12     8     9   ar
    13     9    13    1
    14    13    14    2
    15    13    15   am
    16    15    16    1
    17    16    17    1
    18    17    18    1
    19    17    19    1
    20    19    20    1
    21     9    10   ar
    22    10    26    1
    23    26    27    1
    24    27    28   ar
    25    28    29   ar
    26    29    30   ar
    27    30    31   ar
    28    31    32   ar
    29    32    33   ar
    30    33    34   ar
    31    34    35   ar
    32    35    36   ar
    33    10    11   ar
    34    11    12   ar
    35    12     1   ar
    36    12     8   ar
    37    20    15    1
    38    36    27   ar
    39    36    31   ar
    40    18    21    1
