@<TRIPOS>MOLECULE
*****
 34 39 0 0 0
SMALL
GASTEIGER

@<TRIPOS>ATOM
      1 C          64.4849   85.9437   14.6967 C.3     1  UNL1        0.0749
      2 C          63.8112   85.5374   13.4195 C.3     1  UNL1        0.0444
      3 C          63.3357   84.1263   13.2384 C.ar    1  UNL1       -0.0101
      4 C          63.5338   83.1216   14.3344 C.ar    1  UNL1       -0.0091
      5 C          63.0583   81.7105   14.1533 C.ar    1  UNL1       -0.0032
      6 C          62.3846   81.3042   12.8762 C.ar    1  UNL1        0.0010
      7 C          62.1865   82.3089   11.7802 C.ar    1  UNL1        0.0142
      8 C          62.6620   83.7199   11.9613 C.ar    1  UNL1        0.0436
      9 C          64.2075   83.5279   15.6116 C.3     1  UNL1        0.0954
     10 N          64.6830   84.9389   15.7927 N.3     1  UNL1       -0.2934
     11 H          65.6863   84.8910   15.9704 H       1  UNL1        0.1236
     12 N          62.4638   84.7247   10.8653 N.pl3   1  UNL1       -0.3049
     13 C          61.4805   85.8435   11.0423 C.3     1  UNL1        0.1079
     14 C          61.2824   86.8483    9.9464 C.3     1  UNL1        0.0903
     15 N          62.0675   86.7343    8.6733 N.3     1  UNL1       -0.2946
     16 C          63.0508   85.6154    8.4963 C.3     1  UNL1        0.0903
     17 C          63.2490   84.6106    9.5923 C.3     1  UNL1        0.1079
     18 H          62.5898   87.6043    8.5705 H       1  UNL1        0.1233
     19 C          64.9604   87.3547   14.8778 C.3     1  UNL1        0.0886
     20 N          63.9737   88.4845   14.8778 N.3     1  UNL1       -0.2679
     21 C          66.2514   93.1420   13.3382 C.ar    1  UNL1        0.0203
     22 C          66.3895   92.2668   14.5485 C.ar    1  UNL1        0.0985
     23 N          65.5843   91.0060   14.6583 N.ar    1  UNL1       -0.2471
     24 C          64.6409   90.6205   13.5577 C.ar    1  UNL1        0.0695
     25 C          64.5028   91.4956   12.3474 C.ar    1  UNL1       -0.0073
     26 C          65.3081   92.7564   12.2376 C.ar    1  UNL1       -0.0015
     27 C          63.5594   91.1101   11.2467 C.3     1  UNL1        0.0277
     28 C          62.7541   89.8493   11.3565 C.3     1  UNL1        0.0065
     29 C          62.8922   88.9741   12.5669 C.3     1  UNL1        0.0224
     30 C          63.8356   89.3597   13.6675 C.3     1  UNL1        0.0978
     31 C          63.1251   88.7392   16.0882 C.3     1  UNL1        0.0724
     32 C          62.7642   87.6063   17.0029 C.3     1  UNL1        0.0160
     33 C          62.0526   86.3082   17.2447 C.3     1  UNL1        0.0014
     34 C          62.8505   86.9425   18.3452 C.3     1  UNL1        0.0014
@<TRIPOS>BOND
     1    21    22   ar
     2    22    23   ar
     3    23    24   ar
     4    24    25   ar
     5    25    26   ar
     6    25    27    1
     7    27    28    1
     8    28    29    1
     9    29    30    1
    10    30    20    1
    11    20    31    1
    12    31    32    1
    13    32    33    1
    14    33    34    1
    15    20    19    1
    16     1    19    1
    17     1     2    1
    18     2     3    1
    19     3     4   ar
    20     4     5   ar
    21     5     6   ar
    22     6     7   ar
    23     7     8   ar
    24     8    12    1
    25    12    13    1
    26    13    14    1
    27    14    15    1
    28    15    16    1
    29    16    17    1
    30     4     9    1
    31     9    10    1
    32    26    21   ar
    33    34    32    1
    34    10     1    1
    35    30    24    1
    36     8     3   ar
    37    17    12    1
    38    15    18    1
    39    10    11    1
@<TRIPOS>MOLECULE
*****
 34 39 0 0 0
SMALL
GASTEIGER

@<TRIPOS>ATOM
      1 C          63.0190   90.9225   11.5065 C.3     1  UNL1        0.0749
      2 C          64.2729   91.7427   11.4362 C.3     1  UNL1        0.0444
      3 C          65.1344   91.9017   12.6539 C.ar    1  UNL1       -0.0101
      4 C          64.7419   91.2405   13.9418 C.ar    1  UNL1       -0.0091
      5 C          65.6034   91.3995   15.1594 C.ar    1  UNL1       -0.0032
      6 C          66.8573   92.2197   15.0891 C.ar    1  UNL1        0.0010
      7 C          67.2498   92.8809   13.8012 C.ar    1  UNL1        0.0142
      8 C          66.3883   92.7219   12.5836 C.ar    1  UNL1        0.0436
      9 C          63.4880   90.4203   14.0121 C.3     1  UNL1        0.0954
     10 N          62.6266   90.2613   12.7945 N.3     1  UNL1       -0.2934
     11 H          61.7027   90.6177   13.0389 H       1  UNL1        0.1236
     12 N          66.7808   93.3831   11.2956 N.pl3   1  UNL1       -0.3049
     13 C          67.5605   92.6186   10.2672 C.3     1  UNL1        0.1079
     14 C          67.9530   93.2798    8.9793 C.3     1  UNL1        0.0903
     15 N          67.5657   94.7055    8.7197 N.3     1  UNL1       -0.2946
     16 C          66.7859   95.4700    9.7480 C.3     1  UNL1        0.0903
     17 C          66.3935   94.8088   11.0360 C.3     1  UNL1        0.1079
     18 H          67.0083   94.7083    7.8654 H       1  UNL1        0.1233
     19 C          62.1576   90.7635   10.2889 C.3     1  UNL1        0.0886
     20 N          60.8711   89.9969   10.3752 N.3     1  UNL1       -0.2679
     21 C          62.6601   84.9778   11.3017 C.ar    1  UNL1        0.0203
     22 C          62.8049   86.2837   12.0253 C.ar    1  UNL1        0.0985
     23 N          62.1603   87.5214   11.4752 N.ar    1  UNL1       -0.2471
     24 C          61.3709   87.4532   10.2016 C.ar    1  UNL1        0.0695
     25 C          61.2260   86.1473    9.4781 C.ar    1  UNL1       -0.0073
     26 C          61.8707   84.9096   10.0281 C.ar    1  UNL1       -0.0015
     27 C          60.4366   86.0791    8.2044 C.3     1  UNL1        0.0277
     28 C          59.7920   87.3168    7.6544 C.3     1  UNL1        0.0065
     29 C          59.9368   88.6228    8.3780 C.3     1  UNL1        0.0224
     30 C          60.7263   88.6910    9.6516 C.3     1  UNL1        0.0978
     31 C          59.7296   90.5362   11.1851 C.3     1  UNL1        0.0724
     32 C          59.0849   89.6807   12.2352 C.3     1  UNL1        0.0160
     33 C          59.1475   88.9851   13.5627 C.3     1  UNL1        0.0014
     34 C          57.9056   88.8945   12.7263 C.3     1  UNL1        0.0014
@<TRIPOS>BOND
     1    21    22   ar
     2    22    23   ar
     3    23    24   ar
     4    24    25   ar
     5    25    26   ar
     6    25    27    1
     7    27    28    1
     8    28    29    1
     9    29    30    1
    10    30    20    1
    11    20    31    1
    12    31    32    1
    13    32    33    1
    14    33    34    1
    15    20    19    1
    16     1    19    1
    17     1     2    1
    18     2     3    1
    19     3     4   ar
    20     4     5   ar
    21     5     6   ar
    22     6     7   ar
    23     7     8   ar
    24     8    12    1
    25    12    13    1
    26    13    14    1
    27    14    15    1
    28    15    16    1
    29    16    17    1
    30     4     9    1
    31     9    10    1
    32    26    21   ar
    33    34    32    1
    34    10     1    1
    35    30    24    1
    36     8     3   ar
    37    17    12    1
    38    15    18    1
    39    10    11    1
@<TRIPOS>MOLECULE
*****
 34 39 0 0 0
SMALL
GASTEIGER

@<TRIPOS>ATOM
      1 C          61.4780   89.5890   11.8885 C.3     1  UNL1        0.0749
      2 C          61.7262   88.2088   11.3560 C.3     1  UNL1        0.0444
      3 C          61.0947   87.7780   10.0654 C.ar    1  UNL1       -0.0101
      4 C          60.2150   88.7274    9.3073 C.ar    1  UNL1       -0.0091
      5 C          59.5836   88.2966    8.0167 C.ar    1  UNL1       -0.0032
      6 C          59.8317   86.9164    7.4843 C.ar    1  UNL1        0.0010
      7 C          60.7114   85.9670    8.2424 C.ar    1  UNL1        0.0142
      8 C          61.3429   86.3978    9.5330 C.ar    1  UNL1        0.0436
      9 C          59.9669   90.1076    9.8397 C.3     1  UNL1        0.0954
     10 N          60.5983   90.5384   11.1303 N.3     1  UNL1       -0.2934
     11 H          59.8376   90.7997   11.7575 H       1  UNL1        0.1236
     12 N          62.2226   85.4484   10.2912 N.pl3   1  UNL1       -0.3049
     13 C          63.1877   84.5685    9.5534 C.3     1  UNL1        0.1079
     14 C          64.0673   83.6191   10.3115 C.3     1  UNL1        0.0903
     15 N          63.9819   83.5496   11.8075 N.3     1  UNL1       -0.2946
     16 C          63.0168   84.4295   12.5453 C.3     1  UNL1        0.0903
     17 C          62.1371   85.3789   11.7871 C.3     1  UNL1        0.1079
     18 H          64.9118   83.7670   12.1660 H       1  UNL1        0.1233
     19 C          62.1095   90.0198   13.1790 C.3     1  UNL1        0.0886
     20 N          63.6026   90.0118   13.3228 N.3     1  UNL1       -0.2679
     21 C          67.1473   93.4863   15.4707 C.ar    1  UNL1        0.0203
     22 C          66.3344   92.3541   16.0250 C.ar    1  UNL1        0.0985
     23 N          65.4238   91.5733   15.1243 N.ar    1  UNL1       -0.2471
     24 C          65.3261   91.9248   13.6693 C.ar    1  UNL1        0.0695
     25 C          66.1390   93.0570   13.1151 C.ar    1  UNL1       -0.0073
     26 C          67.0496   93.8377   14.0158 C.ar    1  UNL1       -0.0015
     27 C          66.0414   93.4085   11.6601 C.3     1  UNL1        0.0277
     28 C          65.1308   92.6278   10.7594 C.3     1  UNL1        0.0065
     29 C          64.3179   91.4955   11.3137 C.3     1  UNL1        0.0224
     30 C          64.4156   91.1440   12.7686 C.3     1  UNL1        0.0978
     31 C          64.2828   88.8716   14.0209 C.3     1  UNL1        0.0724
     32 C          63.7834   88.4044   15.3560 C.3     1  UNL1        0.0160
     33 C          63.5213   87.2929   16.3286 C.3     1  UNL1        0.0014
     34 C          63.1804   88.7068   16.6958 C.3     1  UNL1        0.0014
@<TRIPOS>BOND
     1    21    22   ar
     2    22    23   ar
     3    23    24   ar
     4    24    25   ar
     5    25    26   ar
     6    25    27    1
     7    27    28    1
     8    28    29    1
     9    29    30    1
    10    30    20    1
    11    20    31    1
    12    31    32    1
    13    32    33    1
    14    33    34    1
    15    20    19    1
    16     1    19    1
    17     1     2    1
    18     2     3    1
    19     3     4   ar
    20     4     5   ar
    21     5     6   ar
    22     6     7   ar
    23     7     8   ar
    24     8    12    1
    25    12    13    1
    26    13    14    1
    27    14    15    1
    28    15    16    1
    29    16    17    1
    30     4     9    1
    31     9    10    1
    32    26    21   ar
    33    34    32    1
    34    10     1    1
    35    30    24    1
    36     8     3   ar
    37    17    12    1
    38    15    18    1
    39    10    11    1
@<TRIPOS>MOLECULE
*****
 34 39 0 0 0
SMALL
GASTEIGER

@<TRIPOS>ATOM
      1 C          63.3789   88.5768   13.3706 C.3     1  UNL1        0.0749
      2 C          63.0770   87.4895   12.3824 C.3     1  UNL1        0.0444
      3 C          63.4467   86.0694   12.6935 C.ar    1  UNL1       -0.0101
      4 C          64.1183   85.7367   13.9928 C.ar    1  UNL1       -0.0091
      5 C          64.4879   84.3166   14.3039 C.ar    1  UNL1       -0.0032
      6 C          64.1861   83.2293   13.3156 C.ar    1  UNL1        0.0010
      7 C          63.5145   83.5621   12.0163 C.ar    1  UNL1        0.0142
      8 C          63.1448   84.9821   11.7052 C.ar    1  UNL1        0.0436
      9 C          64.4201   86.8240   14.9811 C.3     1  UNL1        0.0954
     10 N          64.0504   88.2440   14.6700 N.3     1  UNL1       -0.2934
     11 H          64.9133   88.7869   14.7030 H       1  UNL1        0.1236
     12 N          62.4733   85.3149   10.4058 N.pl3   1  UNL1       -0.3049
     13 C          61.1527   86.0264   10.4048 C.3     1  UNL1        0.1079
     14 C          60.4811   86.3592    9.1055 C.3     1  UNL1        0.0903
     15 N          61.1301   85.9805    7.8072 N.3     1  UNL1       -0.2946
     16 C          62.4506   85.2690    7.8083 C.3     1  UNL1        0.0903
     17 C          63.1222   84.9362    9.1076 C.3     1  UNL1        0.1079
     18 H          61.2614   86.8442    7.2807 H       1  UNL1        0.1233
     19 C          63.0092   89.9968   13.0596 C.3     1  UNL1        0.0886
     20 N          63.4515   90.6217   11.7696 N.3     1  UNL1       -0.2679
     21 C          66.4584   92.9052   15.6419 C.ar    1  UNL1        0.0203
     22 C          65.4227   91.8202   15.6333 C.ar    1  UNL1        0.0985
     23 N          64.7657   91.4207   14.3454 N.ar    1  UNL1       -0.2471
     24 C          65.1442   92.1062   13.0661 C.ar    1  UNL1        0.0695
     25 C          66.1799   93.1912   13.0747 C.ar    1  UNL1       -0.0073
     26 C          66.8369   93.5907   14.3626 C.ar    1  UNL1       -0.0015
     27 C          66.5585   93.8768   11.7953 C.3     1  UNL1        0.0277
     28 C          65.9015   93.4773   10.5074 C.3     1  UNL1        0.0065
     29 C          64.8658   92.3922   10.4989 C.3     1  UNL1        0.0224
     30 C          64.4872   91.7067   11.7782 C.3     1  UNL1        0.0978
     31 C          62.8582   90.1614   10.4711 C.3     1  UNL1        0.0724
     32 C          61.3688   90.0709   10.3174 C.3     1  UNL1        0.0160
     33 C          59.9915   90.2345   10.8887 C.3     1  UNL1        0.0014
     34 C          60.1664   89.7504    9.4798 C.3     1  UNL1        0.0014
@<TRIPOS>BOND
     1    21    22   ar
     2    22    23   ar
     3    23    24   ar
     4    24    25   ar
     5    25    26   ar
     6    25    27    1
     7    27    28    1
     8    28    29    1
     9    29    30    1
    10    30    20    1
    11    20    31    1
    12    31    32    1
    13    32    33    1
    14    33    34    1
    15    20    19    1
    16     1    19    1
    17     1     2    1
    18     2     3    1
    19     3     4   ar
    20     4     5   ar
    21     5     6   ar
    22     6     7   ar
    23     7     8   ar
    24     8    12    1
    25    12    13    1
    26    13    14    1
    27    14    15    1
    28    15    16    1
    29    16    17    1
    30     4     9    1
    31     9    10    1
    32    26    21   ar
    33    34    32    1
    34    10     1    1
    35    30    24    1
    36     8     3   ar
    37    17    12    1
    38    15    18    1
    39    10    11    1
@<TRIPOS>MOLECULE
*****
 34 39 0 0 0
SMALL
GASTEIGER

@<TRIPOS>ATOM
      1 C          61.6770   87.2237   10.7615 C.3     1  UNL1        0.0749
      2 C          62.2714   86.3211   11.8017 C.3     1  UNL1        0.0444
      3 C          63.0082   85.0820   11.3871 C.ar    1  UNL1       -0.0101
      4 C          63.1506   84.7455    9.9324 C.ar    1  UNL1       -0.0091
      5 C          63.8873   83.5064    9.5178 C.ar    1  UNL1       -0.0032
      6 C          64.4817   82.6039   10.5581 C.ar    1  UNL1        0.0010
      7 C          64.3393   82.9404   12.0129 C.ar    1  UNL1        0.0142
      8 C          63.6026   84.1795   12.4274 C.ar    1  UNL1        0.0436
      9 C          62.5562   85.6480    8.8921 C.3     1  UNL1        0.0954
     10 N          61.8195   86.8871    9.3066 N.3     1  UNL1       -0.2934
     11 H          60.8753   86.8085    8.9288 H       1  UNL1        0.1236
     12 N          63.4602   84.5160   13.8822 N.pl3   1  UNL1       -0.3049
     13 C          62.4064   83.8404   14.7087 C.3     1  UNL1        0.1079
     14 C          62.2639   84.1769   16.1634 C.3     1  UNL1        0.0903
     15 N          63.1753   85.1891   16.7919 N.3     1  UNL1       -0.2946
     16 C          64.2291   85.8648   15.9654 C.3     1  UNL1        0.0903
     17 C          64.3715   85.5282   14.5106 C.3     1  UNL1        0.1079
     18 H          63.6584   84.7163   17.5557 H       1  UNL1        0.1233
     19 C          60.9403   88.4627   11.1760 C.3     1  UNL1        0.0886
     20 N          61.2487   89.7745   10.5171 N.3     1  UNL1       -0.2679
     21 C          64.0495   90.3327   15.1099 C.ar    1  UNL1        0.0203
     22 C          62.8096   89.5773   14.7331 C.ar    1  UNL1        0.0985
     23 N          62.2893   89.6431   13.3278 N.ar    1  UNL1       -0.2471
     24 C          63.0089   90.4642   12.2992 C.ar    1  UNL1        0.0695
     25 C          64.2488   91.2195   12.6761 C.ar    1  UNL1       -0.0073
     26 C          64.7691   91.1538   14.0814 C.ar    1  UNL1       -0.0015
     27 C          64.9685   92.0407   11.6475 C.3     1  UNL1        0.0277
     28 C          64.4482   92.1065   10.2422 C.3     1  UNL1        0.0065
     29 C          63.2082   91.3510    9.8654 C.3     1  UNL1        0.0224
     30 C          62.4886   90.5299   10.8939 C.3     1  UNL1        0.0978
     31 C          60.3172   90.3309    9.4813 C.3     1  UNL1        0.0724
     32 C          59.8361   89.4590    8.3595 C.3     1  UNL1        0.0160
     33 C          59.3131   88.1406    7.8715 C.3     1  UNL1        0.0014
     34 C          59.5258   89.2674    6.9046 C.3     1  UNL1        0.0014
@<TRIPOS>BOND
     1    21    22   ar
     2    22    23   ar
     3    23    24   ar
     4    24    25   ar
     5    25    26   ar
     6    25    27    1
     7    27    28    1
     8    28    29    1
     9    29    30    1
    10    30    20    1
    11    20    31    1
    12    31    32    1
    13    32    33    1
    14    33    34    1
    15    20    19    1
    16     1    19    1
    17     1     2    1
    18     2     3    1
    19     3     4   ar
    20     4     5   ar
    21     5     6   ar
    22     6     7   ar
    23     7     8   ar
    24     8    12    1
    25    12    13    1
    26    13    14    1
    27    14    15    1
    28    15    16    1
    29    16    17    1
    30     4     9    1
    31     9    10    1
    32    26    21   ar
    33    34    32    1
    34    10     1    1
    35    30    24    1
    36     8     3   ar
    37    17    12    1
    38    15    18    1
    39    10    11    1
@<TRIPOS>MOLECULE
*****
 34 39 0 0 0
SMALL
GASTEIGER

@<TRIPOS>ATOM
      1 C          61.5605   89.6140   12.0278 C.3     1  UNL1        0.0749
      2 C          61.7715   88.2510   11.4383 C.3     1  UNL1        0.0444
      3 C          61.1287   87.8913   10.1315 C.ar    1  UNL1       -0.0101
      4 C          60.2750   88.8948    9.4144 C.ar    1  UNL1       -0.0091
      5 C          59.6323   88.5351    8.1077 C.ar    1  UNL1       -0.0032
      6 C          59.8432   87.1720    7.5181 C.ar    1  UNL1        0.0010
      7 C          60.6969   86.1686    8.2353 C.ar    1  UNL1        0.0142
      8 C          61.3396   86.5283    9.5420 C.ar    1  UNL1        0.0436
      9 C          60.0641   90.2578   10.0039 C.3     1  UNL1        0.0954
     10 N          60.7068   90.6175   11.3106 N.3     1  UNL1       -0.2934
     11 H          59.9533   90.8728   11.9489 H       1  UNL1        0.1236
     12 N          62.1934   85.5248   10.2592 N.pl3   1  UNL1       -0.3049
     13 C          63.1589   84.6742    9.4884 C.3     1  UNL1        0.1079
     14 C          64.0126   83.6708   10.2055 C.3     1  UNL1        0.0903
     15 N          63.9008   83.5180   11.6936 N.3     1  UNL1       -0.2946
     16 C          62.9353   84.3687   12.4644 C.3     1  UNL1        0.0903
     17 C          62.0816   85.3721   11.7472 C.3     1  UNL1        0.1079
     18 H          64.8273   83.7013   12.0788 H       1  UNL1        0.1233
     19 C          62.2033   89.9737   13.3345 C.3     1  UNL1        0.0886
     20 N          63.6699   89.7349   13.5398 N.3     1  UNL1       -0.2679
     21 C          65.7876   93.7827   10.6450 C.ar    1  UNL1        0.0203
     22 C          64.8793   92.6346   10.3182 C.ar    1  UNL1        0.0985
     23 N          64.4761   91.6680   11.3921 N.ar    1  UNL1       -0.2471
     24 C          64.9813   91.8496   12.7927 C.ar    1  UNL1        0.0695
     25 C          65.8896   92.9977   13.1195 C.ar    1  UNL1       -0.0073
     26 C          66.2927   93.9643   12.0456 C.ar    1  UNL1       -0.0015
     27 C          66.3948   93.1792   14.5202 C.3     1  UNL1        0.0277
     28 C          65.9917   92.2127   15.5940 C.3     1  UNL1        0.0065
     29 C          65.0833   91.0645   15.2672 C.3     1  UNL1        0.0224
     30 C          64.5782   90.8830   13.8666 C.3     1  UNL1        0.0978
     31 C          64.2281   88.3479   13.4184 C.3     1  UNL1        0.0724
     32 C          64.1870   87.4173   14.5941 C.3     1  UNL1        0.0160
     33 C          64.5229   86.0942   15.2160 C.3     1  UNL1        0.0014
     34 C          63.7798   87.1284   16.0085 C.3     1  UNL1        0.0014
@<TRIPOS>BOND
     1    21    22   ar
     2    22    23   ar
     3    23    24   ar
     4    24    25   ar
     5    25    26   ar
     6    25    27    1
     7    27    28    1
     8    28    29    1
     9    29    30    1
    10    30    20    1
    11    20    31    1
    12    31    32    1
    13    32    33    1
    14    33    34    1
    15    20    19    1
    16     1    19    1
    17     1     2    1
    18     2     3    1
    19     3     4   ar
    20     4     5   ar
    21     5     6   ar
    22     6     7   ar
    23     7     8   ar
    24     8    12    1
    25    12    13    1
    26    13    14    1
    27    14    15    1
    28    15    16    1
    29    16    17    1
    30     4     9    1
    31     9    10    1
    32    26    21   ar
    33    34    32    1
    34    10     1    1
    35    30    24    1
    36     8     3   ar
    37    17    12    1
    38    15    18    1
    39    10    11    1
@<TRIPOS>MOLECULE
*****
 34 39 0 0 0
SMALL
GASTEIGER

@<TRIPOS>ATOM
      1 C          64.3490   90.7260   12.9980 C.3     1  UNL1        0.0749
      2 C          63.5372   89.6868   12.2830 C.3     1  UNL1        0.0444
      3 C          63.4944   88.2802   12.8025 C.ar    1  UNL1       -0.0101
      4 C          64.2633   87.9129   14.0369 C.ar    1  UNL1       -0.0091
      5 C          64.2204   86.5064   14.5564 C.ar    1  UNL1       -0.0032
      6 C          63.4087   85.4672   13.8414 C.ar    1  UNL1        0.0010
      7 C          62.6398   85.8346   12.6070 C.ar    1  UNL1        0.0142
      8 C          62.6826   87.2411   12.0876 C.ar    1  UNL1        0.0436
      9 C          65.0750   88.9521   14.7519 C.3     1  UNL1        0.0954
     10 N          65.1179   90.3586   14.2325 N.3     1  UNL1       -0.2934
     11 H          66.0971   90.5732   14.0442 H       1  UNL1        0.1236
     12 N          61.9137   87.6085   10.8531 N.pl3   1  UNL1       -0.3049
     13 C          61.1279   88.8855   10.8113 C.3     1  UNL1        0.1079
     14 C          60.3590   89.2529    9.5769 C.3     1  UNL1        0.0903
     15 N          60.3759   88.3433    8.3842 N.3     1  UNL1       -0.2946
     16 C          61.1616   87.0662    8.4261 C.3     1  UNL1        0.0903
     17 C          61.9305   86.6988    9.6605 C.3     1  UNL1        0.1079
     18 H          60.7412   88.8884    7.6033 H       1  UNL1        0.1233
     19 C          64.3918   92.1325   12.4786 C.3     1  UNL1        0.0886
     20 N          65.6695   92.9160   12.5396 N.3     1  UNL1       -0.2679
     21 C          66.2208   96.5845    8.6042 C.ar    1  UNL1        0.0203
     22 C          65.3439   96.4841    9.8170 C.ar    1  UNL1        0.0985
     23 N          65.4524   95.2947   10.7246 N.ar    1  UNL1       -0.2471
     24 C          66.4378   94.2058   10.4193 C.ar    1  UNL1        0.0695
     25 C          67.3147   94.3063    9.2065 C.ar    1  UNL1       -0.0073
     26 C          67.2062   95.4956    8.2989 C.ar    1  UNL1       -0.0015
     27 C          68.3002   93.2174    8.9011 C.3     1  UNL1        0.0277
     28 C          68.4087   92.0280    9.8087 C.3     1  UNL1        0.0065
     29 C          67.5318   91.9276   11.0216 C.3     1  UNL1        0.0224
     30 C          66.5464   93.0164   11.3268 C.3     1  UNL1        0.0978
     31 C          66.0703   93.5990   13.8136 C.3     1  UNL1        0.0724
     32 C          67.1596   93.0179   14.6655 C.3     1  UNL1        0.0160
     33 C          68.4668   92.2922   14.7864 C.3     1  UNL1        0.0014
     34 C          67.7390   92.7371   16.0203 C.3     1  UNL1        0.0014
@<TRIPOS>BOND
     1    21    22   ar
     2    22    23   ar
     3    23    24   ar
     4    24    25   ar
     5    25    26   ar
     6    25    27    1
     7    27    28    1
     8    28    29    1
     9    29    30    1
    10    30    20    1
    11    20    31    1
    12    31    32    1
    13    32    33    1
    14    33    34    1
    15    20    19    1
    16     1    19    1
    17     1     2    1
    18     2     3    1
    19     3     4   ar
    20     4     5   ar
    21     5     6   ar
    22     6     7   ar
    23     7     8   ar
    24     8    12    1
    25    12    13    1
    26    13    14    1
    27    14    15    1
    28    15    16    1
    29    16    17    1
    30     4     9    1
    31     9    10    1
    32    26    21   ar
    33    34    32    1
    34    10     1    1
    35    30    24    1
    36     8     3   ar
    37    17    12    1
    38    15    18    1
    39    10    11    1
@<TRIPOS>MOLECULE
*****
 34 39 0 0 0
SMALL
GASTEIGER

@<TRIPOS>ATOM
      1 C          64.1695   91.1922   12.2027 C.3     1  UNL1        0.0749
      2 C          63.8992   89.7390   12.4582 C.3     1  UNL1        0.0444
      3 C          63.0026   88.9692   11.5343 C.ar    1  UNL1       -0.0101
      4 C          62.3764   89.6524   10.3550 C.ar    1  UNL1       -0.0091
      5 C          61.4798   88.8826    9.4311 C.ar    1  UNL1       -0.0032
      6 C          61.2095   87.4294    9.6867 C.ar    1  UNL1        0.0010
      7 C          61.8357   86.7462   10.8661 C.ar    1  UNL1        0.0142
      8 C          62.7323   87.5160   11.7899 C.ar    1  UNL1        0.0436
      9 C          62.6467   91.1056   10.0994 C.3     1  UNL1        0.0954
     10 N          63.5432   91.8755   11.0232 N.3     1  UNL1       -0.2934
     11 H          62.9915   92.6506   11.3908 H       1  UNL1        0.1236
     12 N          63.3585   86.8328   12.9693 N.pl3   1  UNL1       -0.3049
     13 C          63.3503   85.3355   13.0602 C.3     1  UNL1        0.1079
     14 C          63.9765   84.6523   14.2395 C.3     1  UNL1        0.0903
     15 N          64.6110   85.4662   15.3281 N.3     1  UNL1       -0.2946
     16 C          64.6192   86.9635   15.2373 C.3     1  UNL1        0.0903
     17 C          63.9930   87.6467   14.0578 C.3     1  UNL1        0.1079
     18 H          65.5851   85.1695   15.3880 H       1  UNL1        0.1233
     19 C          65.0660   91.9621   13.1265 C.3     1  UNL1        0.0886
     20 N          66.5398   92.0319   12.8558 N.3     1  UNL1       -0.2679
     21 C          66.4055   96.8552   10.4130 C.ar    1  UNL1        0.0203
     22 C          65.9087   96.3435   11.7326 C.ar    1  UNL1        0.0985
     23 N          66.1191   94.9063   12.1070 N.ar    1  UNL1       -0.2471
     24 C          66.8262   93.9808   11.1618 C.ar    1  UNL1        0.0695
     25 C          67.3230   94.4926    9.8422 C.ar    1  UNL1       -0.0073
     26 C          67.1126   95.9298    9.4678 C.ar    1  UNL1       -0.0015
     27 C          68.0301   93.5670    8.8970 C.3     1  UNL1        0.0277
     28 C          68.2405   92.1298    9.2714 C.3     1  UNL1        0.0065
     29 C          67.7437   91.6181   10.5911 C.3     1  UNL1        0.0224
     30 C          67.0366   92.5436   11.5362 C.3     1  UNL1        0.0978
     31 C          67.5168   91.5901   13.9048 C.3     1  UNL1        0.0724
     32 C          68.0752   92.5866   14.8769 C.3     1  UNL1        0.0160
     33 C          69.2353   93.1320   15.6559 C.3     1  UNL1        0.0014
     34 C          67.8823   93.7673   15.7818 C.3     1  UNL1        0.0014
@<TRIPOS>BOND
     1    21    22   ar
     2    22    23   ar
     3    23    24   ar
     4    24    25   ar
     5    25    26   ar
     6    25    27    1
     7    27    28    1
     8    28    29    1
     9    29    30    1
    10    30    20    1
    11    20    31    1
    12    31    32    1
    13    32    33    1
    14    33    34    1
    15    20    19    1
    16     1    19    1
    17     1     2    1
    18     2     3    1
    19     3     4   ar
    20     4     5   ar
    21     5     6   ar
    22     6     7   ar
    23     7     8   ar
    24     8    12    1
    25    12    13    1
    26    13    14    1
    27    14    15    1
    28    15    16    1
    29    16    17    1
    30     4     9    1
    31     9    10    1
    32    26    21   ar
    33    34    32    1
    34    10     1    1
    35    30    24    1
    36     8     3   ar
    37    17    12    1
    38    15    18    1
    39    10    11    1
@<TRIPOS>MOLECULE
*****
 34 39 0 0 0
SMALL
GASTEIGER

@<TRIPOS>ATOM
      1 C          64.0194   86.8649   13.9293 C.3     1  UNL1        0.0749
      2 C          63.2917   87.2457   12.6741 C.3     1  UNL1        0.0444
      3 C          63.2124   88.6854   12.2605 C.ar    1  UNL1       -0.0101
      4 C          63.8608   89.7443   13.1021 C.ar    1  UNL1       -0.0091
      5 C          63.7815   91.1839   12.6885 C.ar    1  UNL1       -0.0032
      6 C          63.0538   91.5647   11.4333 C.ar    1  UNL1        0.0010
      7 C          62.4054   90.5058   10.5917 C.ar    1  UNL1        0.0142
      8 C          62.4847   89.0662   11.0053 C.ar    1  UNL1        0.0436
      9 C          64.5885   89.3636   14.3573 C.3     1  UNL1        0.0954
     10 N          64.6678   87.9239   14.7709 N.3     1  UNL1       -0.2934
     11 H          64.2484   87.8605   15.6985 H       1  UNL1        0.1236
     12 N          61.8363   88.0072   10.1637 N.pl3   1  UNL1       -0.3049
     13 C          62.6799   86.9754    9.4753 C.3     1  UNL1        0.1079
     14 C          62.0316   85.9165    8.6337 C.3     1  UNL1        0.0903
     15 N          60.5396   85.8893    8.4805 N.3     1  UNL1       -0.2946
     16 C          59.6960   86.9210    9.1689 C.3     1  UNL1        0.0903
     17 C          60.3444   87.9800   10.0105 C.3     1  UNL1        0.1079
     18 H          60.2255   84.9793    8.8178 H       1  UNL1        0.1233
     19 C          64.0987   85.4253   14.3429 C.3     1  UNL1        0.0886
     20 N          62.8487   84.6786   14.7036 N.3     1  UNL1       -0.2679
     21 C          64.1078   82.3550    9.9849 C.ar    1  UNL1        0.0203
     22 C          64.3749   83.7040   10.5840 C.ar    1  UNL1        0.0985
     23 N          63.8661   84.0288   11.9572 N.ar    1  UNL1       -0.2471
     24 C          63.0903   83.0047   12.7313 C.ar    1  UNL1        0.0695
     25 C          62.8233   81.6558   12.1323 C.ar    1  UNL1       -0.0073
     26 C          63.3320   81.3309   10.7591 C.ar    1  UNL1       -0.0015
     27 C          62.0475   80.6316   12.9064 C.3     1  UNL1        0.0277
     28 C          61.5387   80.9565   14.2796 C.3     1  UNL1        0.0065
     29 C          61.8058   82.3055   14.8787 C.3     1  UNL1        0.0224
     30 C          62.5816   83.3296   14.1045 C.3     1  UNL1        0.0978
     31 C          61.8658   85.2810   15.6633 C.3     1  UNL1        0.0724
     32 C          62.3499   86.1509   16.7853 C.3     1  UNL1        0.0160
     33 C          62.7525   86.3152   18.2209 C.3     1  UNL1        0.0014
     34 C          62.7859   87.4933   17.2931 C.3     1  UNL1        0.0014
@<TRIPOS>BOND
     1    21    22   ar
     2    22    23   ar
     3    23    24   ar
     4    24    25   ar
     5    25    26   ar
     6    25    27    1
     7    27    28    1
     8    28    29    1
     9    29    30    1
    10    30    20    1
    11    20    31    1
    12    31    32    1
    13    32    33    1
    14    33    34    1
    15    20    19    1
    16     1    19    1
    17     1     2    1
    18     2     3    1
    19     3     4   ar
    20     4     5   ar
    21     5     6   ar
    22     6     7   ar
    23     7     8   ar
    24     8    12    1
    25    12    13    1
    26    13    14    1
    27    14    15    1
    28    15    16    1
    29    16    17    1
    30     4     9    1
    31     9    10    1
    32    26    21   ar
    33    34    32    1
    34    10     1    1
    35    30    24    1
    36     8     3   ar
    37    17    12    1
    38    15    18    1
    39    10    11    1
