@<TRIPOS>MOLECULE
*****
 23 24 0 0 0
SMALL
GASTEIGER

@<TRIPOS>ATOM
      1 C          64.7402   91.9242   12.5585 C.ar    1  UNL1        0.0503
      2 C          63.8173   90.9470   11.8927 C.ar    1  UNL1        0.0148
      3 C          63.5417   89.6192   12.5339 C.ar    1  UNL1        0.0058
      4 C          64.1890   89.2687   13.8408 C.ar    1  UNL1        0.0538
      5 C          65.1118   90.2459   14.5066 C.ar    1  UNL1        0.0058
      6 C          65.3874   91.5737   13.8654 C.ar    1  UNL1        0.0148
      7 C          66.4190   93.6272   11.5431 C.2     1  UNL1        0.2261
      8 O          67.5467   92.6748   11.8100 O.2     1  UNL1       -0.2748
      9 N          65.0158   93.2519   11.9173 N.am    1  UNL1       -0.2839
     10 H          64.2757   93.8771   11.7421 H       1  UNL1        0.1549
     11 C          66.6946   94.9550   10.9019 C.3     1  UNL1        0.0854
     12 C          67.9973   93.7970    8.9752 C.3     1  UNL1        0.0005
     13 C          67.3332   95.0149    9.5459 C.3     1  UNL1        0.0091
     14 C          67.3076   96.2927    8.7606 C.3     1  UNL1        0.0005
     15 C          63.9134   87.9409   14.4820 C.2     1  UNL1        0.2509
     16 O          63.6006   87.8660   15.9471 O.2     1  UNL1       -0.2698
     17 N          63.9505   86.6880   13.6581 N.am    1  UNL1       -0.2606
     18 H          64.1558   86.7372   12.6965 H       1  UNL1        0.1571
     19 C          63.6749   85.3603   14.2993 C.ar    1  UNL1        0.1658
     20 N          62.3723   84.9263   14.9034 N.ar    1  UNL1       -0.2224
     21 C          62.5459   83.5312   15.4264 C.ar    1  UNL1        0.1079
     22 C          63.9557   83.1029   15.1455 C.ar    1  UNL1        0.0588
     23 S          64.6536   84.2333   14.4489 S.2     1  UNL1       -0.0508
@<TRIPOS>BOND
     1    12    13    1
     2    13    14    1
     3    13    11    1
     4    11     7    1
     5     7     8    2
     6     7     9   am
     7     9     1    1
     8     1     2   ar
     9     2     3   ar
    10     3     4   ar
    11     4    15    1
    12    15    16    2
    13    15    17   am
    14    17    19    1
    15    19    20   ar
    16    20    21   ar
    17    21    22   ar
    18    22    23   ar
    19     4     5   ar
    20     5     6   ar
    21     6     1   ar
    22    23    19   ar
    23     9    10    1
    24    17    18    1
@<TRIPOS>MOLECULE
*****
 23 24 0 0 0
SMALL
GASTEIGER

@<TRIPOS>ATOM
      1 C          64.6086   91.1929   13.6147 C.ar    1  UNL1        0.0503
      2 C          64.0326   91.6145   12.2955 C.ar    1  UNL1        0.0148
      3 C          63.2722   90.6281   11.4596 C.ar    1  UNL1        0.0058
      4 C          63.0879   89.2201   11.9428 C.ar    1  UNL1        0.0538
      5 C          63.6639   88.7985   13.2621 C.ar    1  UNL1        0.0058
      6 C          64.4243   89.7850   14.0980 C.ar    1  UNL1        0.0148
      7 C          66.6018   92.8344   13.9021 C.2     1  UNL1        0.2261
      8 O          67.0743   92.5032   12.5175 O.2     1  UNL1       -0.2748
      9 N          65.3690   92.1793   14.4507 N.am    1  UNL1       -0.2839
     10 H          65.0589   92.3968   15.3594 H       1  UNL1        0.1549
     11 C          67.3622   93.8209   14.7381 C.3     1  UNL1        0.0854
     12 C          68.4115   91.9385   16.1893 C.3     1  UNL1        0.0005
     13 C          68.4399   93.3441   15.6661 C.3     1  UNL1        0.0091
     14 C          69.5460   94.2728   16.0710 C.3     1  UNL1        0.0005
     15 C          62.3275   88.2337   11.1069 C.2     1  UNL1        0.2509
     16 O          62.2026   86.8082   11.5568 O.2     1  UNL1       -0.2698
     17 N          61.6920   88.6727    9.8211 N.am    1  UNL1       -0.2606
     18 H          61.7740   89.6083    9.5258 H       1  UNL1        0.1571
     19 C          60.9316   87.6863    8.9851 C.ar    1  UNL1        0.1658
     20 N          61.4409   86.3594    8.5055 N.ar    1  UNL1       -0.2224
     21 C          60.3525   85.7066    7.7060 C.ar    1  UNL1        0.1079
     22 C          59.1705   86.6301    7.6914 C.ar    1  UNL1        0.0588
     23 S          59.5284   87.8536    8.4820 S.2     1  UNL1       -0.0508
@<TRIPOS>BOND
     1    12    13    1
     2    13    14    1
     3    13    11    1
     4    11     7    1
     5     7     8    2
     6     7     9   am
     7     9     1    1
     8     1     2   ar
     9     2     3   ar
    10     3     4   ar
    11     4    15    1
    12    15    16    2
    13    15    17   am
    14    17    19    1
    15    19    20   ar
    16    20    21   ar
    17    21    22   ar
    18    22    23   ar
    19     4     5   ar
    20     5     6   ar
    21     6     1   ar
    22    23    19   ar
    23     9    10    1
    24    17    18    1
@<TRIPOS>MOLECULE
*****
 23 24 0 0 0
SMALL
GASTEIGER

@<TRIPOS>ATOM
      1 C          62.0787   90.1116   10.9653 C.ar    1  UNL1        0.0503
      2 C          62.3844   89.8829   12.4159 C.ar    1  UNL1        0.0148
      3 C          63.5435   90.5859   13.0580 C.ar    1  UNL1        0.0058
      4 C          64.3969   91.5176   12.2496 C.ar    1  UNL1        0.0538
      5 C          64.0912   91.7463   10.7990 C.ar    1  UNL1        0.0058
      6 C          62.9321   91.0433   10.1569 C.ar    1  UNL1        0.0148
      7 C          60.9210   87.9133   10.2058 C.2     1  UNL1        0.2261
      8 O          62.0815   87.1208   10.7305 O.2     1  UNL1       -0.2748
      9 N          60.9196   89.4086   10.3232 N.am    1  UNL1       -0.2839
     10 H          60.1579   89.9287    9.9788 H       1  UNL1        0.1549
     11 C          59.7619   87.2103    9.5637 C.3     1  UNL1        0.0854
     12 C          60.1728   85.8332    7.3992 C.3     1  UNL1        0.0005
     13 C          59.6938   87.0863    8.0703 C.3     1  UNL1        0.0091
     14 C          59.1467   88.2153    7.2482 C.3     1  UNL1        0.0005
     15 C          65.5560   92.2205   12.8917 C.2     1  UNL1        0.2509
     16 O          65.9860   93.5680   12.3923 O.2     1  UNL1       -0.2698
     17 N          66.2851   91.5761   14.0332 N.am    1  UNL1       -0.2606
     18 H          66.0029   90.6917   14.3609 H       1  UNL1        0.1571
     19 C          67.4442   92.2790   14.6753 C.ar    1  UNL1        0.1658
     20 N          68.8347   92.3742   14.1208 N.ar    1  UNL1       -0.2224
     21 C          69.6662   93.1643   15.0874 C.ar    1  UNL1        0.1079
     22 C          68.7896   93.5574   16.2394 C.ar    1  UNL1        0.0588
     23 S          67.4163   93.0103   15.9847 S.2     1  UNL1       -0.0508
@<TRIPOS>BOND
     1    12    13    1
     2    13    14    1
     3    13    11    1
     4    11     7    1
     5     7     8    2
     6     7     9   am
     7     9     1    1
     8     1     2   ar
     9     2     3   ar
    10     3     4   ar
    11     4    15    1
    12    15    16    2
    13    15    17   am
    14    17    19    1
    15    19    20   ar
    16    20    21   ar
    17    21    22   ar
    18    22    23   ar
    19     4     5   ar
    20     5     6   ar
    21     6     1   ar
    22    23    19   ar
    23     9    10    1
    24    17    18    1
@<TRIPOS>MOLECULE
*****
 23 24 0 0 0
SMALL
GASTEIGER

@<TRIPOS>ATOM
      1 C          65.1588   91.1313   13.4368 C.ar    1  UNL1        0.0503
      2 C          64.4027   89.9162   13.8859 C.ar    1  UNL1        0.0148
      3 C          63.2558   89.4016   13.0675 C.ar    1  UNL1        0.0058
      4 C          62.8650   90.1020   11.8000 C.ar    1  UNL1        0.0538
      5 C          63.6211   91.3171   11.3509 C.ar    1  UNL1        0.0058
      6 C          64.7680   91.8318   12.1693 C.ar    1  UNL1        0.0148
      7 C          66.0498   92.2766   15.5919 C.2     1  UNL1        0.2261
      8 O          64.6470   92.3926   16.1102 O.2     1  UNL1       -0.2748
      9 N          66.3057   91.6460   14.2552 N.am    1  UNL1       -0.2839
     10 H          67.2264   91.5699   13.9150 H       1  UNL1        0.1549
     11 C          67.1967   92.7913   16.4103 C.3     1  UNL1        0.0854
     12 C          69.1154   92.2423   14.7468 C.3     1  UNL1        0.0005
     13 C          68.4845   93.1711   15.7413 C.3     1  UNL1        0.0091
     14 C          69.1412   94.4797   16.0669 C.3     1  UNL1        0.0005
     15 C          61.7181   89.5873   10.9816 C.2     1  UNL1        0.2509
     16 O          60.3129   89.9811   11.3285 O.2     1  UNL1       -0.2698
     17 N          61.9764   88.6789    9.8163 N.am    1  UNL1       -0.2606
     18 H          62.8986   88.4204    9.5886 H       1  UNL1        0.1571
     19 C          60.8295   88.1642    8.9979 C.ar    1  UNL1        0.1658
     20 N          59.9410   88.9850    8.1109 N.ar    1  UNL1       -0.2224
     21 C          58.9321   88.0665    7.4876 C.ar    1  UNL1        0.1079
     22 C          59.1970   86.6780    7.9895 C.ar    1  UNL1        0.0588
     23 S          60.3697   86.7383    8.9230 S.2     1  UNL1       -0.0508
@<TRIPOS>BOND
     1    12    13    1
     2    13    14    1
     3    13    11    1
     4    11     7    1
     5     7     8    2
     6     7     9   am
     7     9     1    1
     8     1     2   ar
     9     2     3   ar
    10     3     4   ar
    11     4    15    1
    12    15    16    2
    13    15    17   am
    14    17    19    1
    15    19    20   ar
    16    20    21   ar
    17    21    22   ar
    18    22    23   ar
    19     4     5   ar
    20     5     6   ar
    21     6     1   ar
    22    23    19   ar
    23     9    10    1
    24    17    18    1
@<TRIPOS>MOLECULE
*****
 23 24 0 0 0
SMALL
GASTEIGER

@<TRIPOS>ATOM
      1 C          65.2973   92.6380   11.5209 C.ar    1  UNL1        0.0503
      2 C          65.9341   92.4782   12.8696 C.ar    1  UNL1        0.0148
      3 C          65.4033   91.4590   13.8336 C.ar    1  UNL1        0.0058
      4 C          64.2356   90.5996   13.4490 C.ar    1  UNL1        0.0538
      5 C          63.5989   90.7593   12.1003 C.ar    1  UNL1        0.0058
      6 C          64.1297   91.7786   11.1363 C.ar    1  UNL1        0.0148
      7 C          66.2658   95.0031   11.0538 C.2     1  UNL1        0.2261
      8 O          66.1727   95.3298   12.5149 O.2     1  UNL1       -0.2748
      9 N          65.8282   93.6572   10.5569 N.am    1  UNL1       -0.2839
     10 H          65.8893   93.4428    9.5979 H       1  UNL1        0.1549
     11 C          66.7967   96.0223   10.0898 C.3     1  UNL1        0.0854
     12 C          66.0775   96.5220    7.6437 C.3     1  UNL1        0.0005
     13 C          66.8647   95.7054    8.6252 C.3     1  UNL1        0.0091
     14 C          67.7200   94.5718    8.1421 C.3     1  UNL1        0.0005
     15 C          63.7048   89.5803   14.4130 C.2     1  UNL1        0.2509
     16 O          62.5253   89.9100   15.2790 O.2     1  UNL1       -0.2698
     17 N          64.3535   88.2314   14.5111 N.am    1  UNL1       -0.2606
     18 H          65.1277   88.0151   13.9427 H       1  UNL1        0.1571
     19 C          63.8227   87.2122   15.4752 C.ar    1  UNL1        0.1658
     20 N          63.0651   87.5025   16.7368 N.ar    1  UNL1       -0.2224
     21 C          62.7304   86.1935   17.3882 C.ar    1  UNL1        0.1079
     22 C          63.2812   85.0941   16.5292 C.ar    1  UNL1        0.0588
     23 S          63.9563   85.7236   15.3468 S.2     1  UNL1       -0.0508
@<TRIPOS>BOND
     1    12    13    1
     2    13    14    1
     3    13    11    1
     4    11     7    1
     5     7     8    2
     6     7     9   am
     7     9     1    1
     8     1     2   ar
     9     2     3   ar
    10     3     4   ar
    11     4    15    1
    12    15    16    2
    13    15    17   am
    14    17    19    1
    15    19    20   ar
    16    20    21   ar
    17    21    22   ar
    18    22    23   ar
    19     4     5   ar
    20     5     6   ar
    21     6     1   ar
    22    23    19   ar
    23     9    10    1
    24    17    18    1
@<TRIPOS>MOLECULE
*****
 23 24 0 0 0
SMALL
GASTEIGER

@<TRIPOS>ATOM
      1 C          63.9469   91.2348   11.9797 C.ar    1  UNL1        0.0503
      2 C          63.2155   90.5723   10.8500 C.ar    1  UNL1        0.0148
      3 C          62.7864   89.1402   10.9717 C.ar    1  UNL1        0.0058
      4 C          63.0886   88.3705   12.2232 C.ar    1  UNL1        0.0538
      5 C          63.8199   89.0329   13.3529 C.ar    1  UNL1        0.0058
      6 C          64.2491   90.4651   13.2311 C.ar    1  UNL1        0.0148
      7 C          65.8123   93.0406   12.0759 C.2     1  UNL1        0.2261
      8 O          66.8195   91.9821   12.4155 O.2     1  UNL1       -0.2748
      9 N          64.3760   92.6669   11.8580 N.am    1  UNL1       -0.2839
     10 H          63.7150   93.3616   11.6350 H       1  UNL1        0.1549
     11 C          66.2414   94.4727   11.9541 C.3     1  UNL1        0.0854
     12 C          67.3267   94.5444    9.5946 C.3     1  UNL1        0.0005
     13 C          66.3655   95.1060   10.6000 C.3     1  UNL1        0.0091
     14 C          65.5283   96.3007   10.2512 C.3     1  UNL1        0.0005
     15 C          62.6594   86.9384   12.3449 C.2     1  UNL1        0.2509
     16 O          61.4458   86.4539   11.6085 O.2     1  UNL1       -0.2698
     17 N          63.4439   85.9907   13.2031 N.am    1  UNL1       -0.2606
     18 H          64.2404   86.3087   13.6865 H       1  UNL1        0.1571
     19 C          63.0147   84.5586   13.3248 C.ar    1  UNL1        0.1658
     20 N          62.9502   83.5595   12.2079 N.ar    1  UNL1       -0.2224
     21 C          62.4704   82.2575   12.7776 C.ar    1  UNL1        0.1079
     22 C          62.2383   82.4519   14.2467 C.ar    1  UNL1        0.0588
     23 S          62.5747   83.8741   14.5850 S.2     1  UNL1       -0.0508
@<TRIPOS>BOND
     1    12    13    1
     2    13    14    1
     3    13    11    1
     4    11     7    1
     5     7     8    2
     6     7     9   am
     7     9     1    1
     8     1     2   ar
     9     2     3   ar
    10     3     4   ar
    11     4    15    1
    12    15    16    2
    13    15    17   am
    14    17    19    1
    15    19    20   ar
    16    20    21   ar
    17    21    22   ar
    18    22    23   ar
    19     4     5   ar
    20     5     6   ar
    21     6     1   ar
    22    23    19   ar
    23     9    10    1
    24    17    18    1
@<TRIPOS>MOLECULE
*****
 23 24 0 0 0
SMALL
GASTEIGER

@<TRIPOS>ATOM
      1 C          64.3318   90.6427   13.2520 C.ar    1  UNL1        0.0503
      2 C          63.6291   89.7871   12.2401 C.ar    1  UNL1        0.0148
      3 C          63.4263   88.3248   12.5056 C.ar    1  UNL1        0.0058
      4 C          63.9263   87.7181   13.7831 C.ar    1  UNL1        0.0538
      5 C          64.6290   88.5737   14.7950 C.ar    1  UNL1        0.0058
      6 C          64.8318   90.0360   14.5295 C.ar    1  UNL1        0.0148
      7 C          65.9195   92.6813   12.9810 C.2     1  UNL1        0.2261
      8 O          67.1016   91.7953   13.2409 O.2     1  UNL1       -0.2748
      9 N          64.5346   92.1051   12.9865 N.am    1  UNL1       -0.2839
     10 H          63.7588   92.6866   12.8159 H       1  UNL1        0.1549
     11 C          66.1222   94.1436   12.7154 C.3     1  UNL1        0.0854
     12 C          66.3011   96.1133   11.0306 C.3     1  UNL1        0.0005
     13 C          66.2468   94.6396   11.3052 C.3     1  UNL1        0.0091
     14 C          66.3169   93.6620   10.1698 C.3     1  UNL1        0.0005
     15 C          63.7235   86.2558   14.0486 C.2     1  UNL1        0.2509
     16 O          64.2546   85.6418   15.3099 O.2     1  UNL1       -0.2698
     17 N          62.9896   85.4074   13.0529 N.am    1  UNL1       -0.2606
     18 H          62.6409   85.8104   12.2250 H       1  UNL1        0.1571
     19 C          62.7868   83.9451   13.3184 C.ar    1  UNL1        0.1658
     20 N          61.9812   83.3557   14.4380 N.ar    1  UNL1       -0.2224
     21 C          62.0505   81.8618   14.3225 C.ar    1  UNL1        0.1079
     22 C          62.8989   81.5278   13.1314 C.ar    1  UNL1        0.0588
     23 S          63.3540   82.8154   12.5108 S.2     1  UNL1       -0.0508
@<TRIPOS>BOND
     1    12    13    1
     2    13    14    1
     3    13    11    1
     4    11     7    1
     5     7     8    2
     6     7     9   am
     7     9     1    1
     8     1     2   ar
     9     2     3   ar
    10     3     4   ar
    11     4    15    1
    12    15    16    2
    13    15    17   am
    14    17    19    1
    15    19    20   ar
    16    20    21   ar
    17    21    22   ar
    18    22    23   ar
    19     4     5   ar
    20     5     6   ar
    21     6     1   ar
    22    23    19   ar
    23     9    10    1
    24    17    18    1
@<TRIPOS>MOLECULE
*****
 23 24 0 0 0
SMALL
GASTEIGER

@<TRIPOS>ATOM
      1 C          64.4782   88.8239   14.1228 C.ar    1  UNL1        0.0503
      2 C          63.6382   88.5931   12.9017 C.ar    1  UNL1        0.0148
      3 C          63.1363   87.2153   12.5860 C.ar    1  UNL1        0.0058
      4 C          63.4744   86.0682   13.4914 C.ar    1  UNL1        0.0538
      5 C          64.3144   86.2989   14.7125 C.ar    1  UNL1        0.0058
      6 C          64.8163   87.6767   15.0282 C.ar    1  UNL1        0.0148
      7 C          64.4104   90.9594   15.6009 C.2     1  UNL1        0.2261
      8 O          63.3387   90.3392   16.4477 O.2     1  UNL1       -0.2748
      9 N          64.9801   90.2017   14.4385 N.am    1  UNL1       -0.2839
     10 H          65.6835   90.6087   13.8828 H       1  UNL1        0.1549
     11 C          64.9123   92.3372   15.9166 C.3     1  UNL1        0.0854
     12 C          66.3603   93.3836   14.0303 C.3     1  UNL1        0.0005
     13 C          66.2478   92.7853   15.4012 C.3     1  UNL1        0.0091
     14 C          67.4707   92.6352   16.2566 C.3     1  UNL1        0.0005
     15 C          62.9725   84.6903   13.1757 C.2     1  UNL1        0.2509
     16 O          62.3147   84.4159   11.8559 O.2     1  UNL1       -0.2698
     17 N          63.1285   83.5870   14.1798 N.am    1  UNL1       -0.2606
     18 H          63.5602   83.7671   15.0460 H       1  UNL1        0.1571
     19 C          62.6266   82.2091   13.8641 C.ar    1  UNL1        0.1658
     20 N          61.3244   81.6194   14.3187 N.ar    1  UNL1       -0.2224
     21 C          61.2318   80.2249   13.7739 C.ar    1  UNL1        0.1079
     22 C          62.4767   79.9528   12.9826 C.ar    1  UNL1        0.0588
     23 S          63.3387   81.1791   13.0383 S.2     1  UNL1       -0.0508
@<TRIPOS>BOND
     1    12    13    1
     2    13    14    1
     3    13    11    1
     4    11     7    1
     5     7     8    2
     6     7     9   am
     7     9     1    1
     8     1     2   ar
     9     2     3   ar
    10     3     4   ar
    11     4    15    1
    12    15    16    2
    13    15    17   am
    14    17    19    1
    15    19    20   ar
    16    20    21   ar
    17    21    22   ar
    18    22    23   ar
    19     4     5   ar
    20     5     6   ar
    21     6     1   ar
    22    23    19   ar
    23     9    10    1
    24    17    18    1
@<TRIPOS>MOLECULE
*****
 23 24 0 0 0
SMALL
GASTEIGER

@<TRIPOS>ATOM
      1 C          62.3156   88.9887   10.4765 C.ar    1  UNL1        0.0503
      2 C          62.7676   90.3977   10.2309 C.ar    1  UNL1        0.0148
      3 C          63.5712   91.1198   11.2714 C.ar    1  UNL1        0.0058
      4 C          63.9228   90.4330   12.5577 C.ar    1  UNL1        0.0538
      5 C          63.4708   89.0240   12.8034 C.ar    1  UNL1        0.0058
      6 C          62.6672   88.3018   11.7628 C.ar    1  UNL1        0.0148
      7 C          61.5749   86.7708    9.3443 C.2     1  UNL1        0.2261
      8 O          62.4414   85.9970   10.2933 O.2     1  UNL1       -0.2748
      9 N          61.5120   88.2666    9.4360 N.am    1  UNL1       -0.2839
     10 H          60.9433   88.7745    8.8132 H       1  UNL1        0.1549
     11 C          60.7713   86.0487    8.3037 C.3     1  UNL1        0.0854
     12 C          62.9369   84.9286    7.4059 C.3     1  UNL1        0.0005
     13 C          61.4575   85.1577    7.3110 C.3     1  UNL1        0.0091
     14 C          60.6643   84.4959    6.2234 C.3     1  UNL1        0.0005
     15 C          64.7264   91.1551   13.5983 C.2     1  UNL1        0.2509
     16 O          64.0746   91.6002   14.8738 O.2     1  UNL1       -0.2698
     17 N          66.1817   91.4320   13.3633 N.am    1  UNL1       -0.2606
     18 H          66.6095   91.1399   12.5261 H       1  UNL1        0.1571
     19 C          66.9853   92.1541   14.4039 C.ar    1  UNL1        0.1658
     20 N          67.8445   91.5155   15.4546 N.ar    1  UNL1       -0.2224
     21 C          68.4610   92.6083   16.2765 C.ar    1  UNL1        0.1079
     22 C          67.9828   93.9224   15.7339 C.ar    1  UNL1        0.0588
     23 S          67.0708   93.6418   14.5765 S.2     1  UNL1       -0.0508
@<TRIPOS>BOND
     1    12    13    1
     2    13    14    1
     3    13    11    1
     4    11     7    1
     5     7     8    2
     6     7     9   am
     7     9     1    1
     8     1     2   ar
     9     2     3   ar
    10     3     4   ar
    11     4    15    1
    12    15    16    2
    13    15    17   am
    14    17    19    1
    15    19    20   ar
    16    20    21   ar
    17    21    22   ar
    18    22    23   ar
    19     4     5   ar
    20     5     6   ar
    21     6     1   ar
    22    23    19   ar
    23     9    10    1
    24    17    18    1
