@<TRIPOS>MOLECULE
*****
 40 44 0 0 0
SMALL
GASTEIGER

@<TRIPOS>ATOM
      1 N          61.7295   88.5087   11.3706 N.am    1  UNL1       -0.2770
      2 C          62.7162   87.4001   11.5889 C.2     1  UNL1        0.2294
      3 O          63.6377   87.4384   12.7717 O.2     1  UNL1       -0.2747
      4 C          62.7812   86.2532   10.6242 C.3     1  UNL1        0.1211
      5 C          62.8583   86.5169    9.1496 C.3     1  UNL1        0.0804
      6 N          62.9233   85.3700    8.1851 N.3     1  UNL1       -0.2969
      7 C          62.9112   83.9595    8.6952 C.3     1  UNL1        0.0714
      8 C          62.8342   83.6958   10.1697 C.3     1  UNL1        0.0490
      9 C          62.7692   84.8427   11.1343 C.3     1  UNL1        0.1224
     10 O          62.6991   85.8823   12.2134 O.3     1  UNL1       -0.3492
     11 C          62.6353   85.1752   13.5348 C.3     1  UNL1        0.1687
     12 C          62.6659   83.6986   13.2724 C.ar    1  UNL1        0.0079
     13 C          62.6291   82.5147   14.1926 C.ar    1  UNL1        0.0299
     14 C          62.6750   81.1252   13.6294 C.ar    1  UNL1        0.1671
     15 F          62.6382   79.9413   14.5496 F       1  UNL1       -0.2018
     16 C          62.7578   80.9197   12.1458 C.ar    1  UNL1        0.1671
     17 F          62.8037   79.5303   11.5825 F       1  UNL1       -0.2018
     18 C          62.7946   82.1037   11.2255 C.ar    1  UNL1        0.0297
     19 C          62.7486   83.4931   11.7888 C.ar    1  UNL1        0.0033
     20 H          63.7851   85.4828    7.6513 H       1  UNL1        0.1233
     21 C          60.8079   88.4704   10.1876 C.3     1  UNL1        0.0758
     22 C          59.7461   87.7728    9.3902 C.3     1  UNL1        0.0215
     23 C          60.2737   89.1015    8.9362 C.3     1  UNL1        0.0215
     24 C          61.6645   89.6556   12.3351 C.3     1  UNL1        0.1201
     25 C          64.7151   92.0964   11.6379 C.ar    1  UNL1       -0.0194
     26 C          63.5062   91.2379   11.4108 C.ar    1  UNL1       -0.0067
     27 C          62.8733   90.5141   12.5622 C.ar    1  UNL1        0.0004
     28 C          63.4493   90.6489   13.9406 C.ar    1  UNL1        0.0343
     29 C          64.6582   91.5074   14.1677 C.ar    1  UNL1        0.1381
     30 C          65.2911   92.2312   13.0163 C.ar    1  UNL1        0.0326
     31 C          65.3480   92.8202   10.4865 C.3     1  UNL1        0.0290
     32 C          66.1534   94.0614   10.7325 C.3     1  UNL1        0.0367
     33 C          67.2233   94.4658    9.7620 C.3     1  UNL1        0.1426
     34 C          68.7482   92.4676    9.1051 C.3     1  UNL1        0.1741
     35 O          68.5604   93.7868    9.7939 O.3     1  UNL1       -0.3511
     36 O          65.2342   91.6422   15.5462 O.3     1  UNL1       -0.4728
     37 C          66.4806   92.4481   15.7627 C.3     1  UNL1        0.2373
     38 C          67.8238   91.8415   15.4838 C.3     1  UNL1        0.1894
     39 O          69.0495   92.7062   15.4723 O.3     1  UNL1       -0.3471
     40 C          68.9917   94.0966   16.0320 C.3     1  UNL1        0.1743
@<TRIPOS>BOND
     1    34    35    1
     2    35    33    1
     3    33    32    1
     4    32    31    1
     5    31    25    1
     6    25    26   ar
     7    26    27   ar
     8    27    24    1
     9    24     1    1
    10     1     2   am
    11     2     3    2
    12     4     2    1
    13     4     5    1
    14     5     6    1
    15     6     7    1
    16     7     8    1
    17     9     8    1
    18     9    10    1
    19    10    11    1
    20    11    12    1
    21    12    13   ar
    22    13    14   ar
    23    14    15    1
    24    14    16   ar
    25    16    17    1
    26    16    18   ar
    27    18    19   ar
    28     1    21    1
    29    21    22    1
    30    22    23    1
    31    27    28   ar
    32    28    29   ar
    33    29    36    1
    34    36    37    1
    35    37    38    1
    36    38    39    1
    37    39    40    1
    38    29    30   ar
    39    30    25   ar
    40     9     4    1
    41    19    12   ar
    42    23    21    1
    43    19     9    1
    44     6    20    1
@<TRIPOS>MOLECULE
*****
 40 44 0 0 0
SMALL
GASTEIGER

@<TRIPOS>ATOM
      1 N          61.7735   88.5518   11.3506 N.am    1  UNL1       -0.2770
      2 C          62.7412   87.4268   11.5691 C.2     1  UNL1        0.2294
      3 O          63.6758   87.4585   12.7419 O.2     1  UNL1       -0.2747
      4 C          62.7744   86.2700   10.6147 C.3     1  UNL1        0.1211
      5 C          62.8160   86.5186    9.1361 C.3     1  UNL1        0.0804
      6 N          62.8491   85.3618    8.1818 N.3     1  UNL1       -0.2969
      7 C          62.8407   83.9565    8.7061 C.3     1  UNL1        0.0714
      8 C          62.7992   83.7079   10.1847 C.3     1  UNL1        0.0490
      9 C          62.7660   84.8646   11.1390 C.3     1  UNL1        0.1224
     10 O          62.7300   85.9153   12.2091 O.3     1  UNL1       -0.3492
     11 C          62.6949   85.2218   13.5387 C.3     1  UNL1        0.1687
     12 C          62.7092   83.7425   13.2904 C.ar    1  UNL1        0.0079
     13 C          62.6879   82.5680   14.2231 C.ar    1  UNL1        0.0299
     14 C          62.7105   81.1727   13.6729 C.ar    1  UNL1        0.1671
     15 F          62.6892   79.9982   14.6056 F       1  UNL1       -0.2018
     16 C          62.7545   80.9520   12.1899 C.ar    1  UNL1        0.1671
     17 F          62.7771   79.5568   11.6396 F       1  UNL1       -0.2018
     18 C          62.7758   82.1266   11.2570 C.ar    1  UNL1        0.0297
     19 C          62.7531   83.5218   11.8073 C.ar    1  UNL1        0.0033
     20 H          63.6979   85.4634    7.6253 H       1  UNL1        0.1233
     21 C          60.8389   88.5201   10.1777 C.3     1  UNL1        0.0758
     22 C          60.2876   89.1603    8.9383 C.3     1  UNL1        0.0215
     23 C          59.7716   87.8248    9.3856 C.3     1  UNL1        0.0215
     24 C          61.7403   89.7086   12.3049 C.3     1  UNL1        0.1201
     25 C          64.8293   91.5400   13.9943 C.ar    1  UNL1       -0.0194
     26 C          63.6156   90.6758   13.8208 C.ar    1  UNL1       -0.0067
     27 C          62.9539   90.5728   12.4785 C.ar    1  UNL1        0.0004
     28 C          63.5060   91.3340   11.3098 C.ar    1  UNL1        0.0343
     29 C          64.7197   92.1982   11.4834 C.ar    1  UNL1        0.1381
     30 C          65.3813   92.3012   12.8256 C.ar    1  UNL1        0.0326
     31 C          65.4909   91.6430   15.3365 C.3     1  UNL1        0.0290
     32 C          66.5225   92.7033   15.5848 C.3     1  UNL1        0.0367
     33 C          67.9812   92.3585   15.5279 C.3     1  UNL1        0.1426
     34 C          68.6776   91.7390   13.1028 C.3     1  UNL1        0.1741
     35 O          68.7736   92.6524   14.2887 O.3     1  UNL1       -0.3511
     36 O          65.2717   92.9594   10.3147 O.3     1  UNL1       -0.4728
     37 C          66.1355   94.1640   10.5446 C.3     1  UNL1        0.2373
     38 C          67.2684   94.4642    9.6085 C.3     1  UNL1        0.1894
     39 O          68.5687   93.7290    9.7446 O.3     1  UNL1       -0.3471
     40 C          68.7468   92.3923    9.0879 C.3     1  UNL1        0.1743
@<TRIPOS>BOND
     1    34    35    1
     2    35    33    1
     3    33    32    1
     4    32    31    1
     5    31    25    1
     6    25    26   ar
     7    26    27   ar
     8    27    24    1
     9    24     1    1
    10     1     2   am
    11     2     3    2
    12     4     2    1
    13     4     5    1
    14     5     6    1
    15     6     7    1
    16     7     8    1
    17     9     8    1
    18     9    10    1
    19    10    11    1
    20    11    12    1
    21    12    13   ar
    22    13    14   ar
    23    14    15    1
    24    14    16   ar
    25    16    17    1
    26    16    18   ar
    27    18    19   ar
    28     1    21    1
    29    21    22    1
    30    22    23    1
    31    27    28   ar
    32    28    29   ar
    33    29    36    1
    34    36    37    1
    35    37    38    1
    36    38    39    1
    37    39    40    1
    38    29    30   ar
    39    30    25   ar
    40     9     4    1
    41    19    12   ar
    42    23    21    1
    43    19     9    1
    44     6    20    1
@<TRIPOS>MOLECULE
*****
 40 44 0 0 0
SMALL
GASTEIGER

@<TRIPOS>ATOM
      1 N          61.4256   88.3869   10.8159 N.am    1  UNL1       -0.2770
      2 C          62.4893   87.3814   11.1443 C.2     1  UNL1        0.2294
      3 O          63.3862   87.5977   12.3270 O.2     1  UNL1       -0.2747
      4 C          62.6559   86.1598   10.2900 C.3     1  UNL1        0.1211
      5 C          62.8035   86.2983    8.8038 C.3     1  UNL1        0.0804
      6 N          62.9701   85.0767    7.9495 N.3     1  UNL1       -0.2969
      7 C          62.9891   83.7165    8.5816 C.3     1  UNL1        0.0714
      8 C          62.8416   83.5779   10.0678 C.3     1  UNL1        0.0490
      9 C          62.6749   84.7995   10.9220 C.3     1  UNL1        0.1224
     10 O          62.5015   85.9241   11.8995 O.3     1  UNL1       -0.3492
     11 C          62.3942   85.3317   13.2734 C.3     1  UNL1        0.1687
     12 C          62.5014   83.8410   13.1451 C.ar    1  UNL1        0.0079
     13 C          62.4634   82.7406   14.1637 C.ar    1  UNL1        0.0299
     14 C          62.5990   81.3113   13.7292 C.ar    1  UNL1        0.1671
     15 F          62.5610   80.2110   14.7478 F       1  UNL1       -0.2018
     16 C          62.7725   80.9825   12.2760 C.ar    1  UNL1        0.1671
     17 F          62.9080   79.5532   11.8415 F       1  UNL1       -0.2018
     18 C          62.8104   82.0829   11.2573 C.ar    1  UNL1        0.0297
     19 C          62.6749   83.5121   11.6918 C.ar    1  UNL1        0.0033
     20 H          63.8547   85.1830    7.4530 H       1  UNL1        0.1233
     21 C          60.5287   88.1706    9.6332 C.3     1  UNL1        0.0758
     22 C          59.9257   88.6662    8.3523 C.3     1  UNL1        0.0215
     23 C          59.5781   87.3004    8.8658 C.3     1  UNL1        0.0215
     24 C          61.2590   89.6085   11.6702 C.3     1  UNL1        0.1201
     25 C          64.0783   91.1571   13.9947 C.ar    1  UNL1       -0.0194
     26 C          62.8734   90.3800   13.5540 C.ar    1  UNL1       -0.0067
     27 C          62.4639   90.3856   12.1109 C.ar    1  UNL1        0.0004
     28 C          63.2594   91.1683   11.1086 C.ar    1  UNL1        0.0343
     29 C          64.4644   91.9454   11.5493 C.ar    1  UNL1        0.1381
     30 C          64.8738   91.9398   12.9923 C.ar    1  UNL1        0.0326
     31 C          64.4877   91.1516   15.4377 C.3     1  UNL1        0.0290
     32 C          63.6128   90.4935   16.4630 C.3     1  UNL1        0.0367
     33 C          63.3412   89.0204   16.3830 C.3     1  UNL1        0.1426
     34 C          62.7207   86.7822   17.5470 C.3     1  UNL1        0.1741
     35 O          63.0616   88.2404   17.6333 O.3     1  UNL1       -0.3511
     36 O          65.2599   92.7280   10.5470 O.3     1  UNL1       -0.4728
     37 C          66.3205   93.6818   11.0111 C.3     1  UNL1        0.2373
     38 C          67.1154   94.4651   10.0089 C.3     1  UNL1        0.1894
     39 O          68.5046   94.0294    9.6477 O.3     1  UNL1       -0.3471
     40 C          68.7691   92.6013    9.2729 C.3     1  UNL1        0.1743
@<TRIPOS>BOND
     1    34    35    1
     2    35    33    1
     3    33    32    1
     4    32    31    1
     5    31    25    1
     6    25    26   ar
     7    26    27   ar
     8    27    24    1
     9    24     1    1
    10     1     2   am
    11     2     3    2
    12     4     2    1
    13     4     5    1
    14     5     6    1
    15     6     7    1
    16     7     8    1
    17     9     8    1
    18     9    10    1
    19    10    11    1
    20    11    12    1
    21    12    13   ar
    22    13    14   ar
    23    14    15    1
    24    14    16   ar
    25    16    17    1
    26    16    18   ar
    27    18    19   ar
    28     1    21    1
    29    21    22    1
    30    22    23    1
    31    27    28   ar
    32    28    29   ar
    33    29    36    1
    34    36    37    1
    35    37    38    1
    36    38    39    1
    37    39    40    1
    38    29    30   ar
    39    30    25   ar
    40     9     4    1
    41    19    12   ar
    42    23    21    1
    43    19     9    1
    44     6    20    1
@<TRIPOS>MOLECULE
*****
 40 44 0 0 0
SMALL
GASTEIGER

@<TRIPOS>ATOM
      1 N          61.3789   88.3760   10.8200 N.am    1  UNL1       -0.2770
      2 C          62.4634   87.3856   11.1248 C.2     1  UNL1        0.2294
      3 O          63.3603   87.5961   12.3085 O.2     1  UNL1       -0.2747
      4 C          62.6511   86.1847   10.2457 C.3     1  UNL1        0.1211
      5 C          62.7997   86.3564    8.7630 C.3     1  UNL1        0.0804
      6 N          62.9874   85.1556    7.8840 N.3     1  UNL1       -0.2969
      7 C          63.0265   83.7830    8.4877 C.3     1  UNL1        0.0714
      8 C          62.8779   83.6112    9.9704 C.3     1  UNL1        0.0490
      9 C          62.6902   84.8121   10.8494 C.3     1  UNL1        0.1224
     10 O          62.4969   85.9132   11.8496 O.3     1  UNL1       -0.3492
     11 C          62.3960   85.2908   13.2106 C.3     1  UNL1        0.1687
     12 C          62.5269   83.8049   13.0517 C.ar    1  UNL1        0.0079
     13 C          62.5041   82.6832   14.0471 C.ar    1  UNL1        0.0299
     14 C          62.6631   81.2655   13.5834 C.ar    1  UNL1        0.1671
     15 F          62.6402   80.1437   14.5788 F       1  UNL1       -0.2018
     16 C          62.8449   80.9697   12.1241 C.ar    1  UNL1        0.1671
     17 F          63.0038   79.5521   11.6603 F       1  UNL1       -0.2018
     18 C          62.8677   82.0915   11.1285 C.ar    1  UNL1        0.0297
     19 C          62.7088   83.5091   11.5923 C.ar    1  UNL1        0.0033
     20 H          63.8713   85.2861    7.3920 H       1  UNL1        0.1233
     21 C          60.4820   88.1654    9.6362 C.3     1  UNL1        0.0758
     22 C          59.4812   87.3272    8.8974 C.3     1  UNL1        0.0215
     23 C          59.9295   88.6390    8.3246 C.3     1  UNL1        0.0215
     24 C          61.1911   89.5768   11.6990 C.3     1  UNL1        0.1201
     25 C          64.4948   91.7623   11.9438 C.ar    1  UNL1       -0.0194
     26 C          63.3006   91.0577   11.3715 C.ar    1  UNL1       -0.0067
     27 C          62.3853   90.2814   12.2713 C.ar    1  UNL1        0.0004
     28 C          62.6642   90.2097   13.7434 C.ar    1  UNL1        0.0343
     29 C          63.8583   90.9143   14.3157 C.ar    1  UNL1        0.1381
     30 C          64.7736   91.6906   13.4160 C.ar    1  UNL1        0.0326
     31 C          65.4100   92.5386   11.0440 C.3     1  UNL1        0.0290
     32 C          66.1533   93.7279   11.5759 C.3     1  UNL1        0.0367
     33 C          66.0477   95.0518   10.8785 C.3     1  UNL1        0.1426
     34 C          67.7433   94.6712    8.9472 C.3     1  UNL1        0.1741
     35 O          67.1818   95.5448   10.0296 O.3     1  UNL1       -0.3511
     36 O          64.1372   90.8427   15.7879 O.3     1  UNL1       -0.4728
     37 C          63.3066   89.9544   16.6661 C.3     1  UNL1        0.2373
     38 C          63.3779   88.4646   16.5076 C.3     1  UNL1        0.1894
     39 O          62.2820   87.5989   17.0550 O.3     1  UNL1       -0.3471
     40 C          62.6180   86.4241   17.9250 C.3     1  UNL1        0.1743
@<TRIPOS>BOND
     1    34    35    1
     2    35    33    1
     3    33    32    1
     4    32    31    1
     5    31    25    1
     6    25    26   ar
     7    26    27   ar
     8    27    24    1
     9    24     1    1
    10     1     2   am
    11     2     3    2
    12     4     2    1
    13     4     5    1
    14     5     6    1
    15     6     7    1
    16     7     8    1
    17     9     8    1
    18     9    10    1
    19    10    11    1
    20    11    12    1
    21    12    13   ar
    22    13    14   ar
    23    14    15    1
    24    14    16   ar
    25    16    17    1
    26    16    18   ar
    27    18    19   ar
    28     1    21    1
    29    21    22    1
    30    22    23    1
    31    27    28   ar
    32    28    29   ar
    33    29    36    1
    34    36    37    1
    35    37    38    1
    36    38    39    1
    37    39    40    1
    38    29    30   ar
    39    30    25   ar
    40     9     4    1
    41    19    12   ar
    42    23    21    1
    43    19     9    1
    44     6    20    1
@<TRIPOS>MOLECULE
*****
 40 44 0 0 0
SMALL
GASTEIGER

@<TRIPOS>ATOM
      1 N          62.5210   89.6575   12.5292 N.am    1  UNL1       -0.2770
      2 C          63.1743   88.3117   12.4191 C.2     1  UNL1        0.2294
      3 O          64.3945   88.0014   13.2345 O.2     1  UNL1       -0.2747
      4 C          62.6074   87.2762   11.4936 C.3     1  UNL1        0.1211
      5 C          61.9230   87.6967   10.2268 C.3     1  UNL1        0.0804
      6 N          61.3561   86.6613    9.3014 N.3     1  UNL1       -0.2969
      7 C          61.4737   85.2054    9.6427 C.3     1  UNL1        0.0714
      8 C          62.1582   84.7849   10.9094 C.3     1  UNL1        0.0490
      9 C          62.7250   85.8203   11.8349 C.3     1  UNL1        0.1224
     10 O          63.3372   86.7369   12.8524 O.3     1  UNL1       -0.3492
     11 C          63.9080   85.8925   13.9530 C.3     1  UNL1        0.1687
     12 C          63.6487   84.4541   13.6157 C.ar    1  UNL1        0.0079
     13 C          63.9837   83.1792   14.3314 C.ar    1  UNL1        0.0299
     14 C          63.5877   81.8596   13.7381 C.ar    1  UNL1        0.1671
     15 F          63.9228   80.5847   14.4538 F       1  UNL1       -0.2018
     16 C          62.8566   81.8150   12.4291 C.ar    1  UNL1        0.1671
     17 F          62.4606   80.4955   11.8358 F       1  UNL1       -0.2018
     18 C          62.5215   83.0900   11.7133 C.ar    1  UNL1        0.0297
     19 C          62.9175   84.4095   12.3066 C.ar    1  UNL1        0.0033
     20 H          61.8144   86.7902    8.3993 H       1  UNL1        0.1233
     21 C          61.3008   89.9678   11.7137 C.3     1  UNL1        0.0758
     22 C          59.8091   90.0725   11.5960 C.3     1  UNL1        0.0215
     23 C          60.6792   90.4005   10.4190 C.3     1  UNL1        0.0215
     24 C          63.0879   90.6929   13.4546 C.3     1  UNL1        0.1201
     25 C          66.8556   91.9395   13.4500 C.ar    1  UNL1       -0.0194
     26 C          65.6090   91.1965   13.8293 C.ar    1  UNL1       -0.0067
     27 C          64.3345   91.4359   13.0754 C.ar    1  UNL1        0.0004
     28 C          64.3066   92.4184   11.9423 C.ar    1  UNL1        0.0343
     29 C          65.5533   93.1614   11.5630 C.ar    1  UNL1        0.1381
     30 C          66.8277   92.9220   12.3169 C.ar    1  UNL1        0.0326
     31 C          68.1301   91.7001   14.2039 C.3     1  UNL1        0.0290
     32 C          68.5553   92.6542   15.2803 C.3     1  UNL1        0.0367
     33 C          67.5223   93.3576   16.1100 C.3     1  UNL1        0.1426
     34 C          65.0996   92.5927   16.6531 C.3     1  UNL1        0.1741
     35 O          66.5690   92.5631   16.9526 O.3     1  UNL1       -0.3511
     36 O          65.5253   94.1439   10.4299 O.3     1  UNL1       -0.4728
     37 C          66.6764   95.0833   10.2232 C.3     1  UNL1        0.2373
     38 C          67.7426   94.7539    9.2210 C.3     1  UNL1        0.1894
     39 O          68.8355   93.7904    9.5778 O.3     1  UNL1       -0.3471
     40 C          68.7760   92.3739    9.0880 C.3     1  UNL1        0.1743
@<TRIPOS>BOND
     1    34    35    1
     2    35    33    1
     3    33    32    1
     4    32    31    1
     5    31    25    1
     6    25    26   ar
     7    26    27   ar
     8    27    24    1
     9    24     1    1
    10     1     2   am
    11     2     3    2
    12     4     2    1
    13     4     5    1
    14     5     6    1
    15     6     7    1
    16     7     8    1
    17     9     8    1
    18     9    10    1
    19    10    11    1
    20    11    12    1
    21    12    13   ar
    22    13    14   ar
    23    14    15    1
    24    14    16   ar
    25    16    17    1
    26    16    18   ar
    27    18    19   ar
    28     1    21    1
    29    21    22    1
    30    22    23    1
    31    27    28   ar
    32    28    29   ar
    33    29    36    1
    34    36    37    1
    35    37    38    1
    36    38    39    1
    37    39    40    1
    38    29    30   ar
    39    30    25   ar
    40     9     4    1
    41    19    12   ar
    42    23    21    1
    43    19     9    1
    44     6    20    1
@<TRIPOS>MOLECULE
*****
 40 44 0 0 0
SMALL
GASTEIGER

@<TRIPOS>ATOM
      1 N          61.5150   88.4252   11.5832 N.am    1  UNL1       -0.2770
      2 C          62.9092   88.8766   11.9032 C.2     1  UNL1        0.2294
      3 O          63.8190   87.9919   12.7028 O.2     1  UNL1       -0.2747
      4 C          63.3937   90.2128   11.4235 C.3     1  UNL1        0.1211
      5 C          62.9975   90.7107   10.0652 C.3     1  UNL1        0.0804
      6 N          63.4820   92.0468    9.5856 N.3     1  UNL1       -0.2969
      7 C          64.3625   92.8850   10.4643 C.3     1  UNL1        0.0714
      8 C          64.7586   92.3871   11.8226 C.3     1  UNL1        0.0490
      9 C          64.2742   91.0510   12.3022 C.3     1  UNL1        0.1224
     10 O          63.8695   89.7426   12.9143 O.3     1  UNL1       -0.3492
     11 C          64.4897   89.6569   14.2774 C.3     1  UNL1        0.1687
     12 C          65.2778   90.9123   14.5078 C.ar    1  UNL1        0.0079
     13 C          66.0994   91.3822   15.6713 C.ar    1  UNL1        0.0299
     14 C          66.7879   92.7137   15.6143 C.ar    1  UNL1        0.1671
     15 F          67.6096   93.1836   16.7779 F       1  UNL1       -0.2018
     16 C          66.6547   93.5752   14.3936 C.ar    1  UNL1        0.1671
     17 F          67.3432   94.9067   14.3366 F       1  UNL1       -0.2018
     18 C          65.8330   93.1053   13.2300 C.ar    1  UNL1        0.0297
     19 C          65.1446   91.7739   13.2870 C.ar    1  UNL1        0.0033
     20 H          62.6528   92.6048    9.3816 H       1  UNL1        0.1233
     21 C          60.6052   89.3100   10.7835 C.3     1  UNL1        0.0758
     22 C          59.6423   90.4580   10.7124 C.3     1  UNL1        0.0215
     23 C          59.9924   89.6946    9.4696 C.3     1  UNL1        0.0215
     24 C          61.0306   87.0891   12.0629 C.3     1  UNL1        0.1201
     25 C          62.9162   84.3460    9.9018 C.ar    1  UNL1       -0.0194
     26 C          62.1654   85.5918   10.2683 C.ar    1  UNL1       -0.0067
     27 C          61.7814   85.8433   11.6964 C.ar    1  UNL1        0.0004
     28 C          62.1482   84.8491   12.7579 C.ar    1  UNL1        0.0343
     29 C          62.8990   83.6033   12.3914 C.ar    1  UNL1        0.1381
     30 C          63.2830   83.3518   10.9634 C.ar    1  UNL1        0.0326
     31 C          63.3001   84.0945    8.4738 C.3     1  UNL1        0.0290
     32 C          62.8446   85.0351    7.3979 C.3     1  UNL1        0.0367
     33 C          61.6161   84.7200    6.5968 C.3     1  UNL1        0.1426
     34 C          59.9315   86.4799    7.4993 C.3     1  UNL1        0.1741
     35 O          60.2597   85.0614    7.1384 O.3     1  UNL1       -0.3511
     36 O          63.2659   82.6091   13.4530 O.3     1  UNL1       -0.4728
     37 C          63.2623   81.1421   13.1401 C.3     1  UNL1        0.2373
     38 C          62.0420   80.3175   13.4243 C.3     1  UNL1        0.1894
     39 O          60.9727   80.8488   14.3323 O.3     1  UNL1       -0.3471
     40 C          59.5644   80.3480   14.2058 C.3     1  UNL1        0.1743
@<TRIPOS>BOND
     1    34    35    1
     2    35    33    1
     3    33    32    1
     4    32    31    1
     5    31    25    1
     6    25    26   ar
     7    26    27   ar
     8    27    24    1
     9    24     1    1
    10     1     2   am
    11     2     3    2
    12     4     2    1
    13     4     5    1
    14     5     6    1
    15     6     7    1
    16     7     8    1
    17     9     8    1
    18     9    10    1
    19    10    11    1
    20    11    12    1
    21    12    13   ar
    22    13    14   ar
    23    14    15    1
    24    14    16   ar
    25    16    17    1
    26    16    18   ar
    27    18    19   ar
    28     1    21    1
    29    21    22    1
    30    22    23    1
    31    27    28   ar
    32    28    29   ar
    33    29    36    1
    34    36    37    1
    35    37    38    1
    36    38    39    1
    37    39    40    1
    38    29    30   ar
    39    30    25   ar
    40     9     4    1
    41    19    12   ar
    42    23    21    1
    43    19     9    1
    44     6    20    1
@<TRIPOS>MOLECULE
*****
 40 44 0 0 0
SMALL
GASTEIGER

@<TRIPOS>ATOM
      1 N          61.9383   85.5642   10.4686 N.am    1  UNL1       -0.2770
      2 C          61.3972   86.7922   11.1386 C.2     1  UNL1        0.2294
      3 O          60.6598   86.6736   12.4395 O.2     1  UNL1       -0.2747
      4 C          61.5934   88.1390   10.5078 C.3     1  UNL1        0.1211
      5 C          60.8765   88.4831    9.2361 C.3     1  UNL1        0.0804
      6 N          61.0728   89.8298    8.6053 N.3     1  UNL1       -0.2969
      7 C          61.9860   90.8323    9.2464 C.3     1  UNL1        0.0714
      8 C          62.7030   90.4882   10.5182 C.3     1  UNL1        0.0490
      9 C          62.5067   89.1415   11.1489 C.3     1  UNL1        0.1224
     10 O          62.4099   87.8418   11.8917 O.3     1  UNL1       -0.3492
     11 C          63.2896   87.9336   13.1031 C.3     1  UNL1        0.1687
     12 C          63.9303   89.2900   13.1091 C.ar    1  UNL1        0.0079
     13 C          64.8916   89.9417   14.0582 C.ar    1  UNL1        0.0299
     14 C          65.3692   91.3400   13.7996 C.ar    1  UNL1        0.1671
     15 F          66.3306   91.9918   14.7487 F       1  UNL1       -0.2018
     16 C          64.8853   92.0865   12.5919 C.ar    1  UNL1        0.1671
     17 F          65.3628   93.4847   12.3333 F       1  UNL1       -0.2018
     18 C          63.9238   91.4347   11.6427 C.ar    1  UNL1        0.0297
     19 C          63.4463   90.0365   11.9013 C.ar    1  UNL1        0.0033
     20 H          60.1521   90.2649    8.5476 H       1  UNL1        0.1233
     21 C          62.6757   85.6828    9.1677 C.3     1  UNL1        0.0758
     22 C          63.7591   86.3097    8.3411 C.3     1  UNL1        0.0215
     23 C          62.8695   85.2615    7.7412 C.3     1  UNL1        0.0215
     24 C          61.7421   84.2175   11.0993 C.3     1  UNL1        0.1201
     25 C          64.4210   84.3125   14.0258 C.ar    1  UNL1       -0.0194
     26 C          63.5103   84.7640   12.9227 C.ar    1  UNL1       -0.0067
     27 C          62.6528   83.7660   12.2024 C.ar    1  UNL1        0.0004
     28 C          62.7060   82.3167   12.5852 C.ar    1  UNL1        0.0343
     29 C          63.6166   81.8653   13.6883 C.ar    1  UNL1        0.1381
     30 C          64.4742   82.8631   14.4086 C.ar    1  UNL1        0.0326
     31 C          65.2785   85.3104   14.7461 C.3     1  UNL1        0.0290
     32 C          64.6472   86.3290   15.6483 C.3     1  UNL1        0.0367
     33 C          63.4330   85.9689   16.4522 C.3     1  UNL1        0.1426
     34 C          63.0196   88.4842   16.9543 C.3     1  UNL1        0.1741
     35 O          62.6198   87.0464   17.1059 O.3     1  UNL1       -0.3511
     36 O          63.6698   80.4158   14.0711 O.3     1  UNL1       -0.4728
     37 C          62.4008   79.6257   14.1944 C.3     1  UNL1        0.2373
     38 C          61.1307   80.1476   13.5908 C.3     1  UNL1        0.1894
     39 O          59.9996   80.5765   14.4778 O.3     1  UNL1       -0.3471
     40 C          58.7571   79.7409   14.5659 C.3     1  UNL1        0.1743
@<TRIPOS>BOND
     1    34    35    1
     2    35    33    1
     3    33    32    1
     4    32    31    1
     5    31    25    1
     6    25    26   ar
     7    26    27   ar
     8    27    24    1
     9    24     1    1
    10     1     2   am
    11     2     3    2
    12     4     2    1
    13     4     5    1
    14     5     6    1
    15     6     7    1
    16     7     8    1
    17     9     8    1
    18     9    10    1
    19    10    11    1
    20    11    12    1
    21    12    13   ar
    22    13    14   ar
    23    14    15    1
    24    14    16   ar
    25    16    17    1
    26    16    18   ar
    27    18    19   ar
    28     1    21    1
    29    21    22    1
    30    22    23    1
    31    27    28   ar
    32    28    29   ar
    33    29    36    1
    34    36    37    1
    35    37    38    1
    36    38    39    1
    37    39    40    1
    38    29    30   ar
    39    30    25   ar
    40     9     4    1
    41    19    12   ar
    42    23    21    1
    43    19     9    1
    44     6    20    1
@<TRIPOS>MOLECULE
*****
 40 44 0 0 0
SMALL
GASTEIGER

@<TRIPOS>ATOM
      1 N          61.4984   88.3745   11.4391 N.am    1  UNL1       -0.2770
      2 C          62.8803   88.8265   11.8076 C.2     1  UNL1        0.2294
      3 O          63.7683   87.9349   12.6240 O.2     1  UNL1       -0.2747
      4 C          63.3743   90.1702   11.3597 C.3     1  UNL1        0.1211
      5 C          62.9941   90.6965   10.0076 C.3     1  UNL1        0.0804
      6 N          63.4881   92.0402    9.5597 N.3     1  UNL1       -0.2969
      7 C          64.3623   92.8574   10.4640 C.3     1  UNL1        0.0714
      8 C          64.7426   92.3311   11.8162 C.3     1  UNL1        0.0490
      9 C          64.2486   90.9875   12.2640 C.3     1  UNL1        0.1224
     10 O          63.8330   89.6687   12.8456 O.3     1  UNL1       -0.3492
     11 C          64.4387   89.5536   14.2130 C.3     1  UNL1        0.1687
     12 C          65.2287   90.8012   14.4766 C.ar    1  UNL1        0.0079
     13 C          66.0398   91.2448   15.6577 C.ar    1  UNL1        0.0299
     14 C          66.7335   92.5747   15.6344 C.ar    1  UNL1        0.1671
     15 F          67.5446   93.0183   16.8156 F       1  UNL1       -0.2018
     16 C          66.6159   93.4608   14.4299 C.ar    1  UNL1        0.1671
     17 F          67.3096   94.7906   14.4065 F       1  UNL1       -0.2018
     18 C          65.8048   93.0172   13.2486 C.ar    1  UNL1        0.0297
     19 C          65.1112   91.6874   13.2720 C.ar    1  UNL1        0.0033
     20 H          62.6630   92.6051    9.3584 H       1  UNL1        0.1233
     21 C          60.6104   89.2661   10.6226 C.3     1  UNL1        0.0758
     22 C          59.6711   90.4321   10.5308 C.3     1  UNL1        0.0215
     23 C          60.0116   89.6446    9.3004 C.3     1  UNL1        0.0215
     24 C          61.0044   87.0309   11.8869 C.3     1  UNL1        0.1201
     25 C          62.8292   83.5161   12.1455 C.ar    1  UNL1       -0.0194
     26 C          62.0828   84.7576   12.5347 C.ar    1  UNL1       -0.0067
     27 C          61.7508   85.7894   11.4977 C.ar    1  UNL1        0.0004
     28 C          62.1653   85.5796   10.0714 C.ar    1  UNL1        0.0343
     29 C          62.9118   84.3381    9.6822 C.ar    1  UNL1        0.1381
     30 C          63.2437   83.3064   10.7192 C.ar    1  UNL1        0.0326
     31 C          63.1612   82.4844   13.1824 C.3     1  UNL1        0.0290
     32 C          62.8769   82.7573   14.6297 C.3     1  UNL1        0.0367
     33 C          63.8958   83.4638   15.4740 C.3     1  UNL1        0.1426
     34 C          64.8556   85.8283   14.9863 C.3     1  UNL1        0.1741
     35 O          63.8287   84.9529   15.6414 O.3     1  UNL1       -0.3511
     36 O          63.3263   84.1283    8.2559 O.3     1  UNL1       -0.4728
     37 C          62.8056   85.0372    7.1822 C.3     1  UNL1        0.2373
     38 C          61.5821   84.6544    6.4036 C.3     1  UNL1        0.1894
     39 O          60.2190   84.9523    6.9543 O.3     1  UNL1       -0.3471
     40 C          59.9267   86.2998    7.5447 C.3     1  UNL1        0.1743
@<TRIPOS>BOND
     1    34    35    1
     2    35    33    1
     3    33    32    1
     4    32    31    1
     5    31    25    1
     6    25    26   ar
     7    26    27   ar
     8    27    24    1
     9    24     1    1
    10     1     2   am
    11     2     3    2
    12     4     2    1
    13     4     5    1
    14     5     6    1
    15     6     7    1
    16     7     8    1
    17     9     8    1
    18     9    10    1
    19    10    11    1
    20    11    12    1
    21    12    13   ar
    22    13    14   ar
    23    14    15    1
    24    14    16   ar
    25    16    17    1
    26    16    18   ar
    27    18    19   ar
    28     1    21    1
    29    21    22    1
    30    22    23    1
    31    27    28   ar
    32    28    29   ar
    33    29    36    1
    34    36    37    1
    35    37    38    1
    36    38    39    1
    37    39    40    1
    38    29    30   ar
    39    30    25   ar
    40     9     4    1
    41    19    12   ar
    42    23    21    1
    43    19     9    1
    44     6    20    1
@<TRIPOS>MOLECULE
*****
 40 44 0 0 0
SMALL
GASTEIGER

@<TRIPOS>ATOM
      1 N          61.9124   85.5542   10.3000 N.am    1  UNL1       -0.2770
      2 C          61.4248   86.7440   11.0723 C.2     1  UNL1        0.2294
      3 O          60.6811   86.5487   12.3602 O.2     1  UNL1       -0.2747
      4 C          61.6808   88.1292   10.5567 C.3     1  UNL1        0.1211
      5 C          61.0274   88.5897    9.2874 C.3     1  UNL1        0.0804
      6 N          61.2834   89.9748    8.7718 N.3     1  UNL1       -0.2969
      7 C          62.1928   90.8994    9.5255 C.3     1  UNL1        0.0714
      8 C          62.8462   90.4390   10.7948 C.3     1  UNL1        0.0490
      9 C          62.5901   89.0539   11.3103 C.3     1  UNL1        0.1224
     10 O          62.4299   87.7043   11.9453 O.3     1  UNL1       -0.3492
     11 C          63.2592   87.6784   13.1949 C.3     1  UNL1        0.1687
     12 C          63.9320   89.0120   13.3324 C.ar    1  UNL1        0.0079
     13 C          64.8678   89.5621   14.3675 C.ar    1  UNL1        0.0299
     14 C          65.3901   90.9623   14.2381 C.ar    1  UNL1        0.1671
     15 F          66.3258   91.5124   15.2733 F       1  UNL1       -0.2018
     16 C          64.9766   91.8123   13.0735 C.ar    1  UNL1        0.1671
     17 F          65.4989   93.2125   12.9440 F       1  UNL1       -0.2018
     18 C          64.0408   91.2622   12.0382 C.ar    1  UNL1        0.0297
     19 C          63.5185   89.8621   12.1676 C.ar    1  UNL1        0.0033
     20 H          60.3769   90.4384    8.7107 H       1  UNL1        0.1233
     21 C          62.6561   85.7496    9.0120 C.3     1  UNL1        0.0758
     22 C          63.8265   86.3104    8.2599 C.3     1  UNL1        0.0215
     23 C          62.7738   85.5271    7.5333 C.3     1  UNL1        0.0215
     24 C          61.6565   84.1691   10.8155 C.3     1  UNL1        0.1201
     25 C          63.2354   81.5873   13.3829 C.ar    1  UNL1       -0.0194
     26 C          62.3471   82.1694   12.3237 C.ar    1  UNL1       -0.0067
     27 C          62.5448   83.5870   11.8748 C.ar    1  UNL1        0.0004
     28 C          63.6307   84.4225   12.4852 C.ar    1  UNL1        0.0343
     29 C          64.5191   83.8404   13.5445 C.ar    1  UNL1        0.1381
     30 C          64.3214   82.4229   13.9934 C.ar    1  UNL1        0.0326
     31 C          63.0378   80.1698   13.8318 C.3     1  UNL1        0.0290
     32 C          61.6605   79.6700   14.1530 C.3     1  UNL1        0.0367
     33 C          60.5034   80.6242   14.1788 C.3     1  UNL1        0.1426
     34 C          58.8352   78.6690   14.5583 C.3     1  UNL1        0.1741
     35 O          59.1388   80.1379   14.5677 O.3     1  UNL1       -0.3511
     36 O          65.6051   84.6759   14.1550 O.3     1  UNL1       -0.4728
     37 C          65.2830   85.6265   15.2697 C.3     1  UNL1        0.2373
     38 C          63.9947   85.4876   16.0252 C.3     1  UNL1        0.1894
     39 O          63.2794   86.7099   16.5193 O.3     1  UNL1       -0.3471
     40 C          62.5413   86.6708   17.8245 C.3     1  UNL1        0.1743
@<TRIPOS>BOND
     1    34    35    1
     2    35    33    1
     3    33    32    1
     4    32    31    1
     5    31    25    1
     6    25    26   ar
     7    26    27   ar
     8    27    24    1
     9    24     1    1
    10     1     2   am
    11     2     3    2
    12     4     2    1
    13     4     5    1
    14     5     6    1
    15     6     7    1
    16     7     8    1
    17     9     8    1
    18     9    10    1
    19    10    11    1
    20    11    12    1
    21    12    13   ar
    22    13    14   ar
    23    14    15    1
    24    14    16   ar
    25    16    17    1
    26    16    18   ar
    27    18    19   ar
    28     1    21    1
    29    21    22    1
    30    22    23    1
    31    27    28   ar
    32    28    29   ar
    33    29    36    1
    34    36    37    1
    35    37    38    1
    36    38    39    1
    37    39    40    1
    38    29    30   ar
    39    30    25   ar
    40     9     4    1
    41    19    12   ar
    42    23    21    1
    43    19     9    1
    44     6    20    1
