@<TRIPOS>MOLECULE
*****
 25 28 0 0 0
SMALL
GASTEIGER

@<TRIPOS>ATOM
      1 N          65.7210   93.0558   10.1338 N.pl3   1  UNL1       -0.3441
      2 C          64.9008   92.2508   11.0979 C.ar    1  UNL1        0.1035
      3 C          63.7156   91.4734   10.6074 C.ar    1  UNL1        0.0297
      4 C          62.8954   90.6684   11.5715 C.ar    1  UNL1        0.0090
      5 C          63.2606   90.6409   13.0261 C.ar    1  UNL1        0.1366
      6 N          62.6446   89.9436   14.2026 N.ar    1  UNL1       -0.1258
      7 N          63.4492   90.2901   15.4202 N.ar    1  UNL1       -0.0406
      8 N          64.5625   91.2015   14.9962 N.ar    1  UNL1       -0.1095
      9 C          64.4460   91.4184   13.5166 C.ar    1  UNL1        0.1838
     10 N          65.2661   92.2233   12.5524 N.ar    1  UNL1       -0.3249
     11 H          65.4813   93.0739    9.1791 H       1  UNL1        0.1437
     12 H          66.4990   93.5660   10.4557 H       1  UNL1        0.1437
     13 H          66.0441   92.7336   12.8744 H       1  UNL1        0.1686
     14 C          61.7100   89.8910   11.0809 C.3     1  UNL1        0.0757
     15 C          61.8608   88.4437   10.7168 C.ar    1  UNL1        0.0849
     16 C          61.4384   87.8112    9.4240 C.ar    1  UNL1        0.0374
     17 C          61.7770   86.3514    9.4898 C.ar    1  UNL1        0.1016
     18 N          62.4088   86.0818   10.8233 N.ar    1  UNL1       -0.2285
     19 N          62.4606   87.3749   11.5816 N.ar    1  UNL1       -0.1691
     20 C          62.9022   84.7524   11.3126 C.ar    1  UNL1        0.0828
     21 C          62.6883   84.3530   12.7425 C.ar    1  UNL1        0.0191
     22 C          63.1816   83.0237   13.2318 C.ar    1  UNL1        0.0015
     23 C          63.8890   82.0937   12.2911 C.ar    1  UNL1        0.0001
     24 C          64.1029   82.4931   10.8612 C.ar    1  UNL1        0.0015
     25 C          63.6095   83.8224   10.3719 C.ar    1  UNL1        0.0191
@<TRIPOS>BOND
     1     1     2    1
     2     2     3   ar
     3     3     4   ar
     4     4    14    1
     5    14    15    1
     6    15    16   ar
     7    16    17   ar
     8    17    18   ar
     9    18    20    1
    10    20    21   ar
    11    21    22   ar
    12    22    23   ar
    13    23    24   ar
    14    24    25   ar
    15    18    19   ar
    16     4     5   ar
    17     5     6   ar
    18     6     7   ar
    19     7     8   ar
    20     8     9   ar
    21     9    10   ar
    22    10     2   ar
    23    19    15   ar
    24     9     5    1
    25    25    20   ar
    26     1    11    1
    27     1    12    1
    28    10    13    1
@<TRIPOS>MOLECULE
*****
 25 28 0 0 0
SMALL
GASTEIGER

@<TRIPOS>ATOM
      1 N          66.7205   93.0277   16.4514 N.pl3   1  UNL1       -0.3441
      2 C          66.2847   92.7892   15.0360 C.ar    1  UNL1        0.1035
      3 C          65.2178   91.7773   14.7401 C.ar    1  UNL1        0.0297
      4 C          64.7819   91.5389   13.3247 C.ar    1  UNL1        0.0090
      5 C          65.4131   92.3124   12.2053 C.ar    1  UNL1        0.1366
      6 N          65.1906   92.2936   10.7220 N.ar    1  UNL1       -0.1258
      7 N          66.1201   93.2939   10.1012 N.ar    1  UNL1       -0.0406
      8 N          66.9170   93.9310   11.2007 N.ar    1  UNL1       -0.1095
      9 C          66.4800   93.3244   12.5012 C.ar    1  UNL1        0.1838
     10 N          66.9158   93.5628   13.9165 N.ar    1  UNL1       -0.3249
     11 H          66.3063   92.5200   17.1862 H       1  UNL1        0.1437
     12 H          67.4208   93.6919   16.6455 H       1  UNL1        0.1437
     13 H          67.6161   94.2270   14.1107 H       1  UNL1        0.1686
     14 C          63.7150   90.5268   13.0289 C.3     1  UNL1        0.0757
     15 C          63.8677   89.1139   13.5087 C.ar    1  UNL1        0.0849
     16 C          64.4452   88.6876   14.8258 C.ar    1  UNL1        0.0374
     17 C          64.4041   87.1895   14.8868 C.ar    1  UNL1        0.1016
     18 N          63.8012   86.6898   13.6074 N.ar    1  UNL1       -0.2285
     19 N          63.4697   87.8792   12.7557 N.ar    1  UNL1       -0.1691
     20 C          63.5703   85.2530   13.2435 C.ar    1  UNL1        0.0828
     21 C          62.8031   84.9078   12.0017 C.ar    1  UNL1        0.0191
     22 C          62.5722   83.4710   11.6377 C.ar    1  UNL1        0.0015
     23 C          63.1087   82.3794   12.5158 C.ar    1  UNL1        0.0001
     24 C          63.8759   82.7247   13.7576 C.ar    1  UNL1        0.0015
     25 C          64.1067   84.1615   14.1215 C.ar    1  UNL1        0.0191
@<TRIPOS>BOND
     1     1     2    1
     2     2     3   ar
     3     3     4   ar
     4     4    14    1
     5    14    15    1
     6    15    16   ar
     7    16    17   ar
     8    17    18   ar
     9    18    20    1
    10    20    21   ar
    11    21    22   ar
    12    22    23   ar
    13    23    24   ar
    14    24    25   ar
    15    18    19   ar
    16     4     5   ar
    17     5     6   ar
    18     6     7   ar
    19     7     8   ar
    20     8     9   ar
    21     9    10   ar
    22    10     2   ar
    23    19    15   ar
    24     9     5    1
    25    25    20   ar
    26     1    11    1
    27     1    12    1
    28    10    13    1
@<TRIPOS>MOLECULE
*****
 25 28 0 0 0
SMALL
GASTEIGER

@<TRIPOS>ATOM
      1 N          66.0410   93.8522    9.5077 N.pl3   1  UNL1       -0.3441
      2 C          66.0238   93.1796   10.8484 C.ar    1  UNL1        0.1035
      3 C          64.7954   92.4509   11.3063 C.ar    1  UNL1        0.0297
      4 C          64.7782   91.7783   12.6470 C.ar    1  UNL1        0.0090
      5 C          65.9897   91.8345   13.5297 C.ar    1  UNL1        0.1366
      6 N          66.2659   91.2708   14.8920 N.ar    1  UNL1       -0.1258
      7 N          67.6651   91.6512   15.2761 N.ar    1  UNL1       -0.0406
      8 N          68.2537   92.4499   14.1511 N.ar    1  UNL1       -0.1095
      9 C          67.2182   92.5632   13.0717 C.ar    1  UNL1        0.1838
     10 N          67.2353   93.2357   11.7311 N.ar    1  UNL1       -0.3249
     11 H          65.2459   93.8154    8.9283 H       1  UNL1        0.1437
     12 H          66.8473   94.3304    9.2072 H       1  UNL1        0.1437
     13 H          68.0416   93.7140   11.4305 H       1  UNL1        0.1686
     14 C          63.5496   91.0496   13.1049 C.3     1  UNL1        0.0757
     15 C          63.0604   89.8528   12.3445 C.ar    1  UNL1        0.0849
     16 C          63.4168   88.4232   12.6261 C.ar    1  UNL1        0.0374
     17 C          62.7056   87.5623   11.6246 C.ar    1  UNL1        0.1016
     18 N          61.9096   88.4598   10.7241 N.ar    1  UNL1       -0.2285
     19 N          62.1289   89.8754   11.1690 N.ar    1  UNL1       -0.1691
     20 C          61.0459   88.0191    9.5796 C.ar    1  UNL1        0.0828
     21 C          60.9713   86.5668    9.2121 C.ar    1  UNL1        0.0191
     22 C          60.1076   86.1261    8.0676 C.ar    1  UNL1        0.0015
     23 C          59.3185   87.1379    7.2906 C.ar    1  UNL1        0.0001
     24 C          59.3932   88.5903    7.6581 C.ar    1  UNL1        0.0015
     25 C          60.2569   89.0309    8.8026 C.ar    1  UNL1        0.0191
@<TRIPOS>BOND
     1     1     2    1
     2     2     3   ar
     3     3     4   ar
     4     4    14    1
     5    14    15    1
     6    15    16   ar
     7    16    17   ar
     8    17    18   ar
     9    18    20    1
    10    20    21   ar
    11    21    22   ar
    12    22    23   ar
    13    23    24   ar
    14    24    25   ar
    15    18    19   ar
    16     4     5   ar
    17     5     6   ar
    18     6     7   ar
    19     7     8   ar
    20     8     9   ar
    21     9    10   ar
    22    10     2   ar
    23    19    15   ar
    24     9     5    1
    25    25    20   ar
    26     1    11    1
    27     1    12    1
    28    10    13    1
@<TRIPOS>MOLECULE
*****
 25 28 0 0 0
SMALL
GASTEIGER

@<TRIPOS>ATOM
      1 N          62.0604   89.5756   10.0696 N.pl3   1  UNL1       -0.3441
      2 C          62.9075   89.9355   11.2542 C.ar    1  UNL1        0.1035
      3 C          63.0381   88.9780   12.4013 C.ar    1  UNL1        0.0297
      4 C          63.8852   89.3379   13.5859 C.ar    1  UNL1        0.0090
      5 C          64.6015   90.6553   13.6231 C.ar    1  UNL1        0.1366
      6 N          65.5003   91.2803   14.6485 N.ar    1  UNL1       -0.1258
      7 N          65.9251   92.6241   14.1350 N.ar    1  UNL1       -0.0406
      8 N          65.2889   92.8296   12.7922 N.ar    1  UNL1       -0.1095
      9 C          64.4708   91.6127   12.4759 C.ar    1  UNL1        0.1838
     10 N          63.6238   91.2528   11.2914 N.ar    1  UNL1       -0.3249
     11 H          61.5903   88.7110   10.0451 H       1  UNL1        0.1437
     12 H          61.9747   90.2041    9.3166 H       1  UNL1        0.1437
     13 H          63.5380   91.8812   10.5384 H       1  UNL1        0.1686
     14 C          64.0158   88.3803   14.7332 C.3     1  UNL1        0.0757
     15 C          64.2834   86.9279   14.4710 C.ar    1  UNL1        0.0849
     16 C          65.2800   86.0706   15.1934 C.ar    1  UNL1        0.0374
     17 C          65.2139   84.6907   14.6093 C.ar    1  UNL1        0.1016
     18 N          64.1765   84.6950   13.5259 N.ar    1  UNL1       -0.2285
     19 N          63.6014   86.0778   13.4405 N.ar    1  UNL1       -0.1691
     20 C          63.7831   83.5225   12.6770 C.ar    1  UNL1        0.0828
     21 C          64.2336   83.4462   11.2483 C.ar    1  UNL1        0.0191
     22 C          63.8403   82.2738   10.3994 C.ar    1  UNL1        0.0015
     23 C          62.9964   81.1776   10.9793 C.ar    1  UNL1        0.0001
     24 C          62.5459   81.2539   12.4080 C.ar    1  UNL1        0.0015
     25 C          62.9393   82.4263   13.2569 C.ar    1  UNL1        0.0191
@<TRIPOS>BOND
     1     1     2    1
     2     2     3   ar
     3     3     4   ar
     4     4    14    1
     5    14    15    1
     6    15    16   ar
     7    16    17   ar
     8    17    18   ar
     9    18    20    1
    10    20    21   ar
    11    21    22   ar
    12    22    23   ar
    13    23    24   ar
    14    24    25   ar
    15    18    19   ar
    16     4     5   ar
    17     5     6   ar
    18     6     7   ar
    19     7     8   ar
    20     8     9   ar
    21     9    10   ar
    22    10     2   ar
    23    19    15   ar
    24     9     5    1
    25    25    20   ar
    26     1    11    1
    27     1    12    1
    28    10    13    1
@<TRIPOS>MOLECULE
*****
 25 28 0 0 0
SMALL
GASTEIGER

@<TRIPOS>ATOM
      1 N          63.5023   90.4553   16.6877 N.pl3   1  UNL1       -0.3441
      2 C          64.0024   90.8889   15.3416 C.ar    1  UNL1        0.1035
      3 C          63.2733   90.4693   14.0998 C.ar    1  UNL1        0.0297
      4 C          63.7735   90.9029   12.7536 C.ar    1  UNL1        0.0090
      5 C          65.0028   91.7561   12.6495 C.ar    1  UNL1        0.1366
      6 N          65.7271   92.3329   11.4694 N.ar    1  UNL1       -0.1258
      7 N          66.9039   93.1091   11.9820 N.ar    1  UNL1       -0.0406
      8 N          66.9069   93.0119   13.4789 N.ar    1  UNL1       -0.1095
      9 C          65.7319   92.1757   13.8914 C.ar    1  UNL1        0.1838
     10 N          65.2317   91.7421   15.2374 N.ar    1  UNL1       -0.3249
     11 H          62.6954   89.8954   16.7561 H       1  UNL1        0.1437
     12 H          63.9809   90.7307   17.5028 H       1  UNL1        0.1437
     13 H          65.7103   92.0175   16.0525 H       1  UNL1        0.1686
     14 C          63.0442   90.4832   11.5118 C.3     1  UNL1        0.0757
     15 C          62.7372   89.0341   11.2758 C.ar    1  UNL1        0.0849
     16 C          62.0010   88.4693   10.0973 C.ar    1  UNL1        0.0374
     17 C          61.9214   86.9815   10.2701 C.ar    1  UNL1        0.1016
     18 N          62.6083   86.6267   11.5555 N.ar    1  UNL1       -0.2285
     19 N          63.1126   87.8953   12.1770 N.ar    1  UNL1       -0.1691
     20 C          62.7638   85.2457   12.1202 C.ar    1  UNL1        0.0828
     21 C          62.6147   84.0493   11.2279 C.ar    1  UNL1        0.0191
     22 C          62.7702   82.6684   11.7926 C.ar    1  UNL1        0.0015
     23 C          63.0748   82.4840   13.2498 C.ar    1  UNL1        0.0001
     24 C          63.2239   83.6804   14.1421 C.ar    1  UNL1        0.0015
     25 C          63.0684   85.0613   13.5773 C.ar    1  UNL1        0.0191
@<TRIPOS>BOND
     1     1     2    1
     2     2     3   ar
     3     3     4   ar
     4     4    14    1
     5    14    15    1
     6    15    16   ar
     7    16    17   ar
     8    17    18   ar
     9    18    20    1
    10    20    21   ar
    11    21    22   ar
    12    22    23   ar
    13    23    24   ar
    14    24    25   ar
    15    18    19   ar
    16     4     5   ar
    17     5     6   ar
    18     6     7   ar
    19     7     8   ar
    20     8     9   ar
    21     9    10   ar
    22    10     2   ar
    23    19    15   ar
    24     9     5    1
    25    25    20   ar
    26     1    11    1
    27     1    12    1
    28    10    13    1
@<TRIPOS>MOLECULE
*****
 25 28 0 0 0
SMALL
GASTEIGER

@<TRIPOS>ATOM
      1 N          59.0813   88.1631    7.1267 N.pl3   1  UNL1       -0.3441
      2 C          59.9169   88.0662    8.3687 C.ar    1  UNL1        0.1035
      3 C          60.1464   89.2831    9.2151 C.ar    1  UNL1        0.0297
      4 C          60.9820   89.1862   10.4571 C.ar    1  UNL1        0.0090
      5 C          61.5881   87.8724   10.8526 C.ar    1  UNL1        0.1366
      6 N          62.4506   87.4738   12.0132 N.ar    1  UNL1       -0.1258
      7 N          62.7542   86.0106   11.8842 N.ar    1  UNL1       -0.0406
      8 N          62.0793   85.5047   10.6437 N.ar    1  UNL1       -0.1095
      9 C          61.3586   86.6554   10.0061 C.ar    1  UNL1        0.1838
     10 N          60.5230   86.7524    8.7642 N.ar    1  UNL1       -0.3249
     11 H          58.6834   89.0254    6.8671 H       1  UNL1        0.1437
     12 H          58.9307   87.3643    6.5712 H       1  UNL1        0.1437
     13 H          60.3723   85.9536    8.2087 H       1  UNL1        0.1686
     14 C          61.2114   90.4032   11.3034 C.3     1  UNL1        0.0757
     15 C          62.6004   90.9398   11.4845 C.ar    1  UNL1        0.0849
     16 C          63.4858   91.4785   10.4001 C.ar    1  UNL1        0.0374
     17 C          64.7804   91.9036   11.0273 C.ar    1  UNL1        0.1016
     18 N          64.6951   91.6276   12.4992 N.ar    1  UNL1       -0.2285
     19 N          63.3478   91.0320   12.7818 N.ar    1  UNL1       -0.1691
     20 C          65.7687   91.8995   13.5109 C.ar    1  UNL1        0.0828
     21 C          65.4045   92.1278   14.9480 C.ar    1  UNL1        0.0191
     22 C          66.4780   92.3997   15.9598 C.ar    1  UNL1        0.0015
     23 C          67.9158   92.4433   15.5343 C.ar    1  UNL1        0.0001
     24 C          68.2800   92.2150   14.0972 C.ar    1  UNL1        0.0015
     25 C          67.2064   91.9431   13.0855 C.ar    1  UNL1        0.0191
@<TRIPOS>BOND
     1     1     2    1
     2     2     3   ar
     3     3     4   ar
     4     4    14    1
     5    14    15    1
     6    15    16   ar
     7    16    17   ar
     8    17    18   ar
     9    18    20    1
    10    20    21   ar
    11    21    22   ar
    12    22    23   ar
    13    23    24   ar
    14    24    25   ar
    15    18    19   ar
    16     4     5   ar
    17     5     6   ar
    18     6     7   ar
    19     7     8   ar
    20     8     9   ar
    21     9    10   ar
    22    10     2   ar
    23    19    15   ar
    24     9     5    1
    25    25    20   ar
    26     1    11    1
    27     1    12    1
    28    10    13    1
@<TRIPOS>MOLECULE
*****
 25 28 0 0 0
SMALL
GASTEIGER

@<TRIPOS>ATOM
      1 N          60.3888   80.5686   14.3468 N.pl3   1  UNL1       -0.3441
      2 C          61.5442   81.3039   13.7347 C.ar    1  UNL1        0.1035
      3 C          62.3136   82.3020   14.5479 C.ar    1  UNL1        0.0297
      4 C          63.4690   83.0372   13.9358 C.ar    1  UNL1        0.0090
      5 C          63.8549   82.7742   12.5104 C.ar    1  UNL1        0.1366
      6 N          64.9390   83.3419   11.6430 N.ar    1  UNL1       -0.1258
      7 N          64.8395   82.6945   10.2935 N.ar    1  UNL1       -0.0406
      8 N          63.6939   81.7267   10.3270 N.ar    1  UNL1       -0.1095
      9 C          63.0854   81.7759   11.6971 C.ar    1  UNL1        0.1838
     10 N          61.9301   81.0408   12.3092 N.ar    1  UNL1       -0.3249
     11 H          60.1355   80.7413   15.2823 H       1  UNL1        0.1437
     12 H          59.8838   79.9135   13.8129 H       1  UNL1        0.1437
     13 H          61.4250   80.3856   11.7754 H       1  UNL1        0.1686
     14 C          64.2385   84.0355   14.7492 C.3     1  UNL1        0.0757
     15 C          64.1405   85.4979   14.4303 C.ar    1  UNL1        0.0849
     16 C          64.6262   86.6233   15.2948 C.ar    1  UNL1        0.0374
     17 C          64.3255   87.9125   14.5896 C.ar    1  UNL1        0.1016
     18 N          63.6540   87.5840   13.2892 N.ar    1  UNL1       -0.2285
     19 N          63.5396   86.0916   13.1908 N.ar    1  UNL1       -0.1691
     20 C          63.1799   88.5739   12.2667 C.ar    1  UNL1        0.0828
     21 C          62.3954   88.1059   11.0771 C.ar    1  UNL1        0.0191
     22 C          61.9214   89.0958   10.0546 C.ar    1  UNL1        0.0015
     23 C          62.2320   90.5538   10.2219 C.ar    1  UNL1        0.0001
     24 C          63.0166   91.0217   11.4116 C.ar    1  UNL1        0.0015
     25 C          63.4905   90.0318   12.4340 C.ar    1  UNL1        0.0191
@<TRIPOS>BOND
     1     1     2    1
     2     2     3   ar
     3     3     4   ar
     4     4    14    1
     5    14    15    1
     6    15    16   ar
     7    16    17   ar
     8    17    18   ar
     9    18    20    1
    10    20    21   ar
    11    21    22   ar
    12    22    23   ar
    13    23    24   ar
    14    24    25   ar
    15    18    19   ar
    16     4     5   ar
    17     5     6   ar
    18     6     7   ar
    19     7     8   ar
    20     8     9   ar
    21     9    10   ar
    22    10     2   ar
    23    19    15   ar
    24     9     5    1
    25    25    20   ar
    26     1    11    1
    27     1    12    1
    28    10    13    1
@<TRIPOS>MOLECULE
*****
 25 28 0 0 0
SMALL
GASTEIGER

@<TRIPOS>ATOM
      1 N          62.7531   84.8237    6.9830 N.pl3   1  UNL1       -0.3441
      2 C          62.7284   85.0777    8.4613 C.ar    1  UNL1        0.1035
      3 C          62.1074   86.3338    8.9962 C.ar    1  UNL1        0.0297
      4 C          62.0828   86.5878   10.4744 C.ar    1  UNL1        0.0090
      5 C          62.6792   85.5854   11.4175 C.ar    1  UNL1        0.1366
      6 N          62.8012   85.5627   12.9124 N.ar    1  UNL1       -0.1258
      7 N          63.4977   84.2924   13.3013 N.ar    1  UNL1       -0.0406
      8 N          63.8061   83.5300   12.0468 N.ar    1  UNL1       -0.1095
      9 C          63.3002   84.3292   10.8825 C.ar    1  UNL1        0.1838
     10 N          63.3249   84.0753    9.4044 N.ar    1  UNL1       -0.3249
     11 H          62.3616   85.4816    6.3640 H       1  UNL1        0.1437
     12 H          63.1607   83.9992    6.6320 H       1  UNL1        0.1437
     13 H          63.7325   83.2508    9.0533 H       1  UNL1        0.1686
     14 C          61.4617   87.8441   11.0093 C.3     1  UNL1        0.0757
     15 C          62.2823   89.0939   11.1299 C.ar    1  UNL1        0.0849
     16 C          62.3719   90.1915   10.1115 C.ar    1  UNL1        0.0374
     17 C          63.3023   91.2415   10.6423 C.ar    1  UNL1        0.1016
     18 N          63.7877   90.7928   11.9888 N.ar    1  UNL1       -0.2285
     19 N          63.1573   89.4655   12.2902 N.ar    1  UNL1       -0.1691
     20 C          64.7370   91.5402   12.8780 C.ar    1  UNL1        0.0828
     21 C          64.9539   91.0882   14.2916 C.ar    1  UNL1        0.0191
     22 C          65.9030   91.8355   15.1808 C.ar    1  UNL1        0.0015
     23 C          66.6353   93.0350   14.6561 C.ar    1  UNL1        0.0001
     24 C          66.4184   93.4870   13.2423 C.ar    1  UNL1        0.0015
     25 C          65.4692   92.7396   12.3533 C.ar    1  UNL1        0.0191
@<TRIPOS>BOND
     1     1     2    1
     2     2     3   ar
     3     3     4   ar
     4     4    14    1
     5    14    15    1
     6    15    16   ar
     7    16    17   ar
     8    17    18   ar
     9    18    20    1
    10    20    21   ar
    11    21    22   ar
    12    22    23   ar
    13    23    24   ar
    14    24    25   ar
    15    18    19   ar
    16     4     5   ar
    17     5     6   ar
    18     6     7   ar
    19     7     8   ar
    20     8     9   ar
    21     9    10   ar
    22    10     2   ar
    23    19    15   ar
    24     9     5    1
    25    25    20   ar
    26     1    11    1
    27     1    12    1
    28    10    13    1
@<TRIPOS>MOLECULE
*****
 25 28 0 0 0
SMALL
GASTEIGER

@<TRIPOS>ATOM
      1 N          60.1214   89.6051    8.1391 N.pl3   1  UNL1       -0.3441
      2 C          60.8459   88.9419    9.2729 C.ar    1  UNL1        0.1035
      3 C          61.2976   89.7530   10.4510 C.ar    1  UNL1        0.0297
      4 C          62.0221   89.0897   11.5847 C.ar    1  UNL1        0.0090
      5 C          62.2947   87.6154   11.5403 C.ar    1  UNL1        0.1366
      6 N          62.9819   86.6924   12.5024 N.ar    1  UNL1       -0.1258
      7 N          62.9548   85.3108   11.9189 N.ar    1  UNL1       -0.0406
      8 N          62.2509   85.3800   10.5961 N.ar    1  UNL1       -0.1095
      9 C          61.8430   86.8043   10.3621 C.ar    1  UNL1        0.1838
     10 N          61.1185   87.4676    9.2284 N.ar    1  UNL1       -0.3249
     11 H          59.9424   90.5728    8.1682 H       1  UNL1        0.1437
     12 H          59.8249   89.0728    7.3659 H       1  UNL1        0.1437
     13 H          60.8220   86.9353    8.4551 H       1  UNL1        0.1686
     14 C          62.4738   89.9009   12.7629 C.3     1  UNL1        0.0757
     15 C          63.7012   90.7567   12.6579 C.ar    1  UNL1        0.0849
     16 C          64.6825   91.0298   13.7591 C.ar    1  UNL1        0.0374
     17 C          65.7505   91.9316   13.2150 C.ar    1  UNL1        0.1016
     18 N          65.4294   92.2158   11.7776 N.ar    1  UNL1       -0.2285
     19 N          64.1628   91.4897   11.4333 N.ar    1  UNL1       -0.1691
     20 C          66.2337   93.0752   10.8477 C.ar    1  UNL1        0.0828
     21 C          65.9180   94.5355   10.7145 C.ar    1  UNL1        0.0191
     22 C          66.7221   95.3950    9.7846 C.ar    1  UNL1        0.0015
     23 C          67.8421   94.7940    8.9879 C.ar    1  UNL1        0.0001
     24 C          68.1578   93.3336    9.1212 C.ar    1  UNL1        0.0015
     25 C          67.3536   92.4743   10.0511 C.ar    1  UNL1        0.0191
@<TRIPOS>BOND
     1     1     2    1
     2     2     3   ar
     3     3     4   ar
     4     4    14    1
     5    14    15    1
     6    15    16   ar
     7    16    17   ar
     8    17    18   ar
     9    18    20    1
    10    20    21   ar
    11    21    22   ar
    12    22    23   ar
    13    23    24   ar
    14    24    25   ar
    15    18    19   ar
    16     4     5   ar
    17     5     6   ar
    18     6     7   ar
    19     7     8   ar
    20     8     9   ar
    21     9    10   ar
    22    10     2   ar
    23    19    15   ar
    24     9     5    1
    25    25    20   ar
    26     1    11    1
    27     1    12    1
    28    10    13    1
