@<TRIPOS>MOLECULE
*****
 30 32 0 0 0
SMALL
GASTEIGER

@<TRIPOS>ATOM
      1 N          62.3270   88.6383   12.2138 N.pl3   1  UNL1       -0.3200
      2 H          62.5821   87.8401   12.7304 H       1  UNL1        0.1476
      3 C          63.1595   89.8834   12.2972 C.2     1  UNL1        0.1048
      4 C          64.0035   90.5259   13.3578 C.2     1  UNL1        0.1077
      5 C          64.3368   91.6440   12.4151 C.2     1  UNL1        0.2500
      6 O          65.1693   92.8890   12.4985 O.2     1  UNL1       -0.2817
      7 C          63.4928   91.0016   11.3545 C.2     1  UNL1        0.2498
      8 O          63.1317   91.3379    9.9380 O.2     1  UNL1       -0.2817
      9 N          64.3646   90.1895   14.7742 N.pl3   1  UNL1       -0.3088
     10 H          64.8408   90.8477   15.3304 H       1  UNL1        0.1523
     11 C          64.0002   88.8503   15.3433 C.ar    1  UNL1        0.0515
     12 C          63.1719   88.7658   16.5910 C.ar    1  UNL1        0.0353
     13 C          62.8076   87.4266   17.1601 C.ar    1  UNL1        0.1002
     14 N          63.2716   86.1720   16.4815 N.ar    1  UNL1       -0.2422
     15 C          64.0999   86.2565   15.2338 C.ar    1  UNL1        0.1002
     16 C          64.4642   87.5956   14.6647 C.ar    1  UNL1        0.0353
     17 C          61.1057   88.6096   11.3433 C.3     1  UNL1        0.1695
     18 C          61.0459   87.6829   10.1654 C.ar    1  UNL1        0.0072
     19 C          62.2599   86.8971    9.7669 C.ar    1  UNL1       -0.0020
     20 C          62.2000   85.9703    8.5890 C.ar    1  UNL1        0.0028
     21 C          60.9261   85.8292    7.8096 C.ar    1  UNL1        0.0366
     22 C          59.7122   86.6150    8.2082 C.ar    1  UNL1        0.1334
     23 O          58.4383   86.4740    7.4288 O.3     1  UNL1       -0.5055
     24 C          59.7720   87.5418    9.3861 C.ar    1  UNL1        0.0344
     25 H          58.4009   85.8950    6.6930 H       1  UNL1        0.2922
     26 N          58.9760   89.1372   12.7348 N.am    1  UNL1       -0.3272
     27 C          59.9443   89.5078   11.6508 C.2     1  UNL1        0.2415
     28 O          59.7511   90.7765   10.8742 O.2     1  UNL1       -0.2732
     29 H          58.2138   89.7267   12.9366 H       1  UNL1        0.1450
     30 H          59.1028   88.3045   13.2445 H       1  UNL1        0.1450
@<TRIPOS>BOND
     1    26    27   am
     2    27    28    2
     3    27    17    1
     4    17     1    1
     5     1     3    1
     6     3     4    2
     7     4     9    1
     8     9    11    1
     9    11    12   ar
    10    12    13   ar
    11    13    14   ar
    12    14    15   ar
    13    15    16   ar
    14     4     5    1
    15     5     6    2
    16     5     7    1
    17     7     8    2
    18    17    18    1
    19    18    19   ar
    20    19    20   ar
    21    20    21   ar
    22    21    22   ar
    23    22    23    1
    24    22    24   ar
    25     7     3    1
    26    24    18   ar
    27    16    11   ar
    28    26    29    1
    29    26    30    1
    30     1     2    1
    31     9    10    1
    32    23    25    1
@<TRIPOS>MOLECULE
*****
 30 32 0 0 0
SMALL
GASTEIGER

@<TRIPOS>ATOM
      1 N          62.2388   90.7602   10.2306 N.pl3   1  UNL1       -0.3200
      2 H          62.3322   91.1995    9.3545 H       1  UNL1        0.1476
      3 C          63.2368   91.0334   11.3167 C.2     1  UNL1        0.1048
      4 C          64.2769   92.0861   11.5611 C.2     1  UNL1        0.1077
      5 C          64.6481   91.4197   12.8527 C.2     1  UNL1        0.2500
      6 O          65.6460   91.6928   13.9387 O.2     1  UNL1       -0.2817
      7 C          63.6079   90.3669   12.6083 C.2     1  UNL1        0.2498
      8 O          63.1348   89.1511   13.3487 O.2     1  UNL1       -0.2817
      9 N          64.7500   93.3018   10.8207 N.pl3   1  UNL1       -0.3088
     10 H          64.1317   94.0503   10.6574 H       1  UNL1        0.1523
     11 C          66.1652   93.3770   10.3290 C.ar    1  UNL1        0.0515
     12 C          67.0907   92.2133   10.5266 C.ar    1  UNL1        0.0353
     13 C          68.5058   92.2886   10.0349 C.ar    1  UNL1        0.1002
     14 N          68.9954   93.5276    9.3455 N.ar    1  UNL1       -0.2422
     15 C          68.0698   94.6913    9.1478 C.ar    1  UNL1        0.1002
     16 C          66.6548   94.6160    9.6396 C.ar    1  UNL1        0.0353
     17 C          61.0986   89.8179   10.4794 C.3     1  UNL1        0.1695
     18 C          61.0076   88.5318    9.7129 C.ar    1  UNL1        0.0072
     19 C          62.1850   87.6038    9.6625 C.ar    1  UNL1       -0.0020
     20 C          62.0940   86.3177    8.8960 C.ar    1  UNL1        0.0028
     21 C          60.8255   85.9595    8.1799 C.ar    1  UNL1        0.0366
     22 C          59.6481   86.8875    8.2303 C.ar    1  UNL1        0.1334
     23 O          58.3797   86.5294    7.5142 O.3     1  UNL1       -0.5055
     24 C          59.7392   88.1737    8.9968 C.ar    1  UNL1        0.0344
     25 H          58.3228   85.7260    7.0353 H       1  UNL1        0.2922
     26 N          60.0537   89.4884   12.8352 N.am    1  UNL1       -0.3272
     27 C          60.0494   90.1618   11.4948 C.2     1  UNL1        0.2415
     28 O          58.9959   91.1789   11.1698 O.2     1  UNL1       -0.2732
     29 H          59.3650   89.7141   13.5016 H       1  UNL1        0.1450
     30 H          60.7451   88.8209   13.0485 H       1  UNL1        0.1450
@<TRIPOS>BOND
     1    26    27   am
     2    27    28    2
     3    27    17    1
     4    17     1    1
     5     1     3    1
     6     3     4    2
     7     4     9    1
     8     9    11    1
     9    11    12   ar
    10    12    13   ar
    11    13    14   ar
    12    14    15   ar
    13    15    16   ar
    14     4     5    1
    15     5     6    2
    16     5     7    1
    17     7     8    2
    18    17    18    1
    19    18    19   ar
    20    19    20   ar
    21    20    21   ar
    22    21    22   ar
    23    22    23    1
    24    22    24   ar
    25     7     3    1
    26    24    18   ar
    27    16    11   ar
    28    26    29    1
    29    26    30    1
    30     1     2    1
    31     9    10    1
    32    23    25    1
@<TRIPOS>MOLECULE
*****
 30 32 0 0 0
SMALL
GASTEIGER

@<TRIPOS>ATOM
      1 N          64.5644   84.0227   12.8799 N.pl3   1  UNL1       -0.3200
      2 H          65.5398   84.0893   12.7649 H       1  UNL1        0.1476
      3 C          63.9275   84.4755   14.1603 C.2     1  UNL1        0.1048
      4 C          64.0186   85.7063   15.0129 C.2     1  UNL1        0.1077
      5 C          63.0269   85.1159   15.9710 C.2     1  UNL1        0.2500
      6 O          62.3900   85.5688   17.2514 O.2     1  UNL1       -0.2817
      7 C          62.9357   83.8852   15.1184 C.2     1  UNL1        0.2498
      8 O          62.1700   82.5974   15.1930 O.2     1  UNL1       -0.2817
      9 N          64.7843   86.9939   14.9383 N.pl3   1  UNL1       -0.3088
     10 H          65.6599   87.0724   15.3815 H       1  UNL1        0.1523
     11 C          64.2159   88.1622   14.1885 C.ar    1  UNL1        0.0515
     12 C          64.3337   89.5461   14.7549 C.ar    1  UNL1        0.0353
     13 C          63.7653   90.7142   14.0050 C.ar    1  UNL1        0.1002
     14 N          63.0791   90.4985   12.6887 N.ar    1  UNL1       -0.2422
     15 C          62.9613   89.1145   12.1223 C.ar    1  UNL1        0.1002
     16 C          63.5297   87.9464   12.8722 C.ar    1  UNL1        0.0353
     17 C          63.7149   83.4685   11.7747 C.3     1  UNL1        0.1695
     18 C          63.0642   84.3960   10.7918 C.ar    1  UNL1        0.0072
     19 C          63.5199   84.4143    9.3628 C.ar    1  UNL1       -0.0020
     20 C          62.8691   85.3419    8.3799 C.ar    1  UNL1        0.0028
     21 C          61.7626   86.2511    8.8260 C.ar    1  UNL1        0.0366
     22 C          61.3069   86.2328   10.2550 C.ar    1  UNL1        0.1334
     23 O          60.2004   87.1420   10.7010 O.3     1  UNL1       -0.5055
     24 C          61.9577   85.3052   11.2379 C.ar    1  UNL1        0.0344
     25 H          59.7938   87.7214   10.0870 H       1  UNL1        0.2922
     26 N          63.4423   81.1357   12.8856 N.am    1  UNL1       -0.3272
     27 C          63.5163   81.9867   11.6526 C.2     1  UNL1        0.2415
     28 O          63.3916   81.3559   10.2974 O.2     1  UNL1       -0.2732
     29 H          63.3119   80.1632   12.8054 H       1  UNL1        0.1450
     30 H          63.5241   81.5498   13.7751 H       1  UNL1        0.1450
@<TRIPOS>BOND
     1    26    27   am
     2    27    28    2
     3    27    17    1
     4    17     1    1
     5     1     3    1
     6     3     4    2
     7     4     9    1
     8     9    11    1
     9    11    12   ar
    10    12    13   ar
    11    13    14   ar
    12    14    15   ar
    13    15    16   ar
    14     4     5    1
    15     5     6    2
    16     5     7    1
    17     7     8    2
    18    17    18    1
    19    18    19   ar
    20    19    20   ar
    21    20    21   ar
    22    21    22   ar
    23    22    23    1
    24    22    24   ar
    25     7     3    1
    26    24    18   ar
    27    16    11   ar
    28    26    29    1
    29    26    30    1
    30     1     2    1
    31     9    10    1
    32    23    25    1
@<TRIPOS>MOLECULE
*****
 30 32 0 0 0
SMALL
GASTEIGER

@<TRIPOS>ATOM
      1 N          62.5036   87.7304    9.5075 N.pl3   1  UNL1       -0.3200
      2 H          63.4097   88.0338    9.2703 H       1  UNL1        0.1476
      3 C          61.4992   88.7105   10.0373 C.2     1  UNL1        0.1048
      4 C          61.3020   89.4275   11.3400 C.2     1  UNL1        0.1077
      5 C          60.0788   90.0965   10.7866 C.2     1  UNL1        0.2500
      6 O          59.0744   91.0765   11.3164 O.2     1  UNL1       -0.2817
      7 C          60.2760   89.3795    9.4839 C.2     1  UNL1        0.2498
      8 O          59.5505   89.3456    8.1714 O.2     1  UNL1       -0.2817
      9 N          62.0274   89.4614   12.6524 N.pl3   1  UNL1       -0.3088
     10 H          61.6871   88.9422   13.4165 H       1  UNL1        0.1523
     11 C          63.2714   90.2864   12.8007 C.ar    1  UNL1        0.0515
     12 C          63.6817   91.2279   11.7074 C.ar    1  UNL1        0.0353
     13 C          64.9256   92.0528   11.8558 C.ar    1  UNL1        0.1002
     14 N          65.7592   91.9363   13.0973 N.ar    1  UNL1       -0.2422
     15 C          65.3489   90.9949   14.1906 C.ar    1  UNL1        0.1002
     16 C          64.1050   90.1699   14.0423 C.ar    1  UNL1        0.0353
     17 C          62.1275   86.2881    9.3390 C.3     1  UNL1        0.1695
     18 C          62.6098   85.2670   10.3263 C.ar    1  UNL1        0.0072
     19 C          63.4427   84.1094    9.8615 C.ar    1  UNL1       -0.0020
     20 C          63.9251   83.0883   10.8487 C.ar    1  UNL1        0.0028
     21 C          63.5745   83.2248   12.3008 C.ar    1  UNL1        0.0366
     22 C          62.7415   84.3825   12.7656 C.ar    1  UNL1        0.1334
     23 O          62.3909   84.5191   14.2176 O.3     1  UNL1       -0.5055
     24 C          62.2592   85.4036   11.7783 C.ar    1  UNL1        0.0344
     25 H          62.6922   83.8813   14.8343 H       1  UNL1        0.2922
     26 N          59.7945   86.1412    8.2052 N.am    1  UNL1       -0.3272
     27 C          61.2690   85.8670    8.1833 C.2     1  UNL1        0.2415
     28 O          61.8851   85.1716    7.0056 O.2     1  UNL1       -0.2732
     29 H          59.2310   85.8648    7.4467 H       1  UNL1        0.1450
     30 H          59.3901   86.5976    8.9782 H       1  UNL1        0.1450
@<TRIPOS>BOND
     1    26    27   am
     2    27    28    2
     3    27    17    1
     4    17     1    1
     5     1     3    1
     6     3     4    2
     7     4     9    1
     8     9    11    1
     9    11    12   ar
    10    12    13   ar
    11    13    14   ar
    12    14    15   ar
    13    15    16   ar
    14     4     5    1
    15     5     6    2
    16     5     7    1
    17     7     8    2
    18    17    18    1
    19    18    19   ar
    20    19    20   ar
    21    20    21   ar
    22    21    22   ar
    23    22    23    1
    24    22    24   ar
    25     7     3    1
    26    24    18   ar
    27    16    11   ar
    28    26    29    1
    29    26    30    1
    30     1     2    1
    31     9    10    1
    32    23    25    1
@<TRIPOS>MOLECULE
*****
 30 32 0 0 0
SMALL
GASTEIGER

@<TRIPOS>ATOM
      1 N          62.9066   87.8478   12.1564 N.pl3   1  UNL1       -0.3200
      2 H          63.2284   86.9175   12.1367 H       1  UNL1        0.1476
      3 C          63.5360   88.8395   13.0894 C.2     1  UNL1        0.1048
      4 C          63.9014   88.8433   14.5442 C.2     1  UNL1        0.1077
      5 C          64.4261   90.2420   14.4088 C.2     1  UNL1        0.2500
      6 O          65.0555   91.2337   15.3417 O.2     1  UNL1       -0.2817
      7 C          64.0607   90.2382   12.9539 C.2     1  UNL1        0.2498
      8 O          64.1734   91.2246   11.8294 O.2     1  UNL1       -0.2817
      9 N          63.7887   87.8570   15.6686 N.pl3   1  UNL1       -0.3088
     10 H          63.6677   88.1753   16.5924 H       1  UNL1        0.1523
     11 C          63.8606   86.3856   15.3857 C.ar    1  UNL1        0.0515
     12 C          64.9868   85.8342   14.5627 C.ar    1  UNL1        0.0353
     13 C          65.0586   84.3629   14.2798 C.ar    1  UNL1        0.1002
     14 N          64.0041   83.4430   14.8199 N.ar    1  UNL1       -0.2422
     15 C          62.8778   83.9944   15.6430 C.ar    1  UNL1        0.1002
     16 C          62.8060   85.4657   15.9258 C.ar    1  UNL1        0.0353
     17 C          61.7869   88.2733   11.2536 C.3     1  UNL1        0.1695
     18 C          61.4269   87.4385   10.0605 C.ar    1  UNL1        0.0072
     19 C          62.4596   86.5574    9.4224 C.ar    1  UNL1       -0.0020
     20 C          62.0996   85.7226    8.2294 C.ar    1  UNL1        0.0028
     21 C          60.7067   85.7688    7.6744 C.ar    1  UNL1        0.0366
     22 C          59.6740   86.6499    8.3124 C.ar    1  UNL1        0.1334
     23 O          58.2812   86.6962    7.7575 O.3     1  UNL1       -0.5055
     24 C          60.0341   87.4848    9.5056 C.ar    1  UNL1        0.0344
     25 H          58.0563   86.1747    7.0122 H       1  UNL1        0.2922
     26 N          60.1378   89.6128   12.7490 N.am    1  UNL1       -0.3272
     27 C          61.0272   89.5338   11.5438 C.2     1  UNL1        0.2415
     28 O          61.1571   90.7153   10.6288 O.2     1  UNL1       -0.2732
     29 H          59.6392   90.4400   12.9395 H       1  UNL1        0.1450
     30 H          60.0525   88.8373   13.3496 H       1  UNL1        0.1450
@<TRIPOS>BOND
     1    26    27   am
     2    27    28    2
     3    27    17    1
     4    17     1    1
     5     1     3    1
     6     3     4    2
     7     4     9    1
     8     9    11    1
     9    11    12   ar
    10    12    13   ar
    11    13    14   ar
    12    14    15   ar
    13    15    16   ar
    14     4     5    1
    15     5     6    2
    16     5     7    1
    17     7     8    2
    18    17    18    1
    19    18    19   ar
    20    19    20   ar
    21    20    21   ar
    22    21    22   ar
    23    22    23    1
    24    22    24   ar
    25     7     3    1
    26    24    18   ar
    27    16    11   ar
    28    26    29    1
    29    26    30    1
    30     1     2    1
    31     9    10    1
    32    23    25    1
@<TRIPOS>MOLECULE
*****
 30 32 0 0 0
SMALL
GASTEIGER

@<TRIPOS>ATOM
      1 N          62.2366   89.0123   12.2901 N.pl3   1  UNL1       -0.3200
      2 H          62.4883   88.3813   13.0026 H       1  UNL1        0.1476
      3 C          63.1035   90.2019   12.0011 C.2     1  UNL1        0.1048
      4 C          64.1332   90.9757   12.7698 C.2     1  UNL1        0.1077
      5 C          64.3295   91.8841   11.5925 C.2     1  UNL1        0.2500
      6 O          65.1964   93.0737   11.3035 O.2     1  UNL1       -0.2817
      7 C          63.2998   91.1103   10.8237 C.2     1  UNL1        0.2498
      8 O          62.7104   91.2055    9.4476 O.2     1  UNL1       -0.2817
      9 N          64.7226   90.8804   14.1459 N.pl3   1  UNL1       -0.3088
     10 H          64.2738   90.3422   14.8374 H       1  UNL1        0.1523
     11 C          65.9957   91.6052   14.4683 C.ar    1  UNL1        0.0515
     12 C          66.0886   92.4419   15.7098 C.ar    1  UNL1        0.0353
     13 C          67.3617   93.1666   16.0323 C.ar    1  UNL1        0.1002
     14 N          68.5419   93.0547   15.1132 N.ar    1  UNL1       -0.2422
     15 C          68.4489   92.2181   13.8717 C.ar    1  UNL1        0.1002
     16 C          67.1759   91.4933   13.5493 C.ar    1  UNL1        0.0353
     17 C          60.9863   88.7842   11.4934 C.3     1  UNL1        0.1695
     18 C          61.0020   87.8418   10.3266 C.ar    1  UNL1        0.0072
     19 C          62.2555   87.0923    9.9845 C.ar    1  UNL1       -0.0020
     20 C          62.2711   86.1499    8.8177 C.ar    1  UNL1        0.0028
     21 C          61.0332   85.9569    7.9928 C.ar    1  UNL1        0.0366
     22 C          59.7796   86.7063    8.3349 C.ar    1  UNL1        0.1334
     23 O          58.5417   86.5133    7.5101 O.3     1  UNL1       -0.5055
     24 C          59.7640   87.6488    9.5018 C.ar    1  UNL1        0.0344
     25 H          58.5515   85.9246    6.7812 H       1  UNL1        0.2922
     26 N          58.7505   88.8619   12.8146 N.am    1  UNL1       -0.3272
     27 C          59.7203   89.4986   11.8637 C.2     1  UNL1        0.2415
     28 O          59.4241   90.8495   11.2830 O.2     1  UNL1       -0.2732
     29 H          57.9197   89.3308   13.0576 H       1  UNL1        0.1450
     30 H          58.9449   87.9752   13.1957 H       1  UNL1        0.1450
@<TRIPOS>BOND
     1    26    27   am
     2    27    28    2
     3    27    17    1
     4    17     1    1
     5     1     3    1
     6     3     4    2
     7     4     9    1
     8     9    11    1
     9    11    12   ar
    10    12    13   ar
    11    13    14   ar
    12    14    15   ar
    13    15    16   ar
    14     4     5    1
    15     5     6    2
    16     5     7    1
    17     7     8    2
    18    17    18    1
    19    18    19   ar
    20    19    20   ar
    21    20    21   ar
    22    21    22   ar
    23    22    23    1
    24    22    24   ar
    25     7     3    1
    26    24    18   ar
    27    16    11   ar
    28    26    29    1
    29    26    30    1
    30     1     2    1
    31     9    10    1
    32    23    25    1
@<TRIPOS>MOLECULE
*****
 30 32 0 0 0
SMALL
GASTEIGER

@<TRIPOS>ATOM
      1 N          61.4549   86.2084   11.3974 N.pl3   1  UNL1       -0.3200
      2 H          60.8687   86.0919   12.1797 H       1  UNL1        0.1476
      3 C          62.4303   85.1316   11.0240 C.2     1  UNL1        0.1048
      4 C          63.1278   84.0292   11.7644 C.2     1  UNL1        0.1077
      5 C          63.8096   83.6089   10.4961 C.2     1  UNL1        0.2500
      6 O          64.7849   82.5321   10.1229 O.2     1  UNL1       -0.2817
      7 C          63.1121   84.7113    9.7558 C.2     1  UNL1        0.2498
      8 O          63.1010   85.1937    8.3355 O.2     1  UNL1       -0.2817
      9 N          63.1388   83.5469   13.1846 N.pl3   1  UNL1       -0.3088
     10 H          63.1035   82.5820   13.3771 H       1  UNL1        0.1523
     11 C          63.2038   84.5346   14.3117 C.ar    1  UNL1        0.0515
     12 C          64.1556   85.6917   14.2409 C.ar    1  UNL1        0.0353
     13 C          64.2206   86.6794   15.3680 C.ar    1  UNL1        0.1002
     14 N          63.3337   86.5099   16.5658 N.ar    1  UNL1       -0.2422
     15 C          62.3819   85.3528   16.6366 C.ar    1  UNL1        0.1002
     16 C          62.3169   84.3651   15.5095 C.ar    1  UNL1        0.0353
     17 C          61.3728   87.4627   10.5787 C.3     1  UNL1        0.1695
     18 C          62.1893   88.6618   10.9598 C.ar    1  UNL1        0.0072
     19 C          62.3089   89.8193   10.0133 C.ar    1  UNL1       -0.0020
     20 C          63.1254   91.0185   10.3944 C.ar    1  UNL1        0.0028
     21 C          63.8225   91.0602   11.7220 C.ar    1  UNL1        0.0366
     22 C          63.7029   89.9026   12.6685 C.ar    1  UNL1        0.1334
     23 O          64.3999   89.9442   13.9960 O.3     1  UNL1       -0.5055
     24 C          62.8863   88.7034   12.2873 C.ar    1  UNL1        0.0344
     25 H          64.9100   90.6933   14.2341 H       1  UNL1        0.2922
     26 N          60.2662   86.2912    8.5408 N.am    1  UNL1       -0.3272
     27 C          60.4741   87.5177    9.3790 C.2     1  UNL1        0.2415
     28 O          59.7834   88.7991    9.0175 O.2     1  UNL1       -0.2732
     29 H          59.6763   86.3273    7.7533 H       1  UNL1        0.1450
     30 H          60.7195   85.4502    8.7781 H       1  UNL1        0.1450
@<TRIPOS>BOND
     1    26    27   am
     2    27    28    2
     3    27    17    1
     4    17     1    1
     5     1     3    1
     6     3     4    2
     7     4     9    1
     8     9    11    1
     9    11    12   ar
    10    12    13   ar
    11    13    14   ar
    12    14    15   ar
    13    15    16   ar
    14     4     5    1
    15     5     6    2
    16     5     7    1
    17     7     8    2
    18    17    18    1
    19    18    19   ar
    20    19    20   ar
    21    20    21   ar
    22    21    22   ar
    23    22    23    1
    24    22    24   ar
    25     7     3    1
    26    24    18   ar
    27    16    11   ar
    28    26    29    1
    29    26    30    1
    30     1     2    1
    31     9    10    1
    32    23    25    1
@<TRIPOS>MOLECULE
*****
 30 32 0 0 0
SMALL
GASTEIGER

@<TRIPOS>ATOM
      1 N          61.9601   87.7848   11.5857 N.pl3   1  UNL1       -0.3200
      2 H          62.2810   87.3052   12.3834 H       1  UNL1        0.1476
      3 C          61.7894   87.0519   10.2880 C.2     1  UNL1        0.1048
      4 C          62.3115   85.7655    9.7198 C.2     1  UNL1        0.1077
      5 C          61.5481   86.0154    8.4530 C.2     1  UNL1        0.2500
      6 O          61.3775   85.2825    7.1554 O.2     1  UNL1       -0.2817
      7 C          61.0261   87.3017    9.0212 C.2     1  UNL1        0.2498
      8 O          60.1172   88.3880    8.5272 O.2     1  UNL1       -0.2817
      9 N          63.2203   84.6793   10.2138 N.pl3   1  UNL1       -0.3088
     10 H          64.0011   84.4093    9.6783 H       1  UNL1        0.1523
     11 C          62.9396   84.0044   11.5237 C.ar    1  UNL1        0.0515
     12 C          62.6547   82.5323   11.5630 C.ar    1  UNL1        0.0353
     13 C          62.3740   81.8574   12.8729 C.ar    1  UNL1        0.1002
     14 N          62.3782   82.6547   14.1434 N.ar    1  UNL1       -0.2422
     15 C          62.6631   84.1269   14.1041 C.ar    1  UNL1        0.1002
     16 C          62.9438   84.8017   12.7943 C.ar    1  UNL1        0.0353
     17 C          61.6420   89.2483   11.6679 C.3     1  UNL1        0.1695
     18 C          62.7521   90.2568   11.6946 C.ar    1  UNL1        0.0072
     19 C          63.1883   90.9259   10.4250 C.ar    1  UNL1       -0.0020
     20 C          64.2983   91.9344   10.4517 C.ar    1  UNL1        0.0028
     21 C          64.9723   92.2737   11.7482 C.ar    1  UNL1        0.0366
     22 C          64.5361   91.6046   13.0179 C.ar    1  UNL1        0.1334
     23 O          65.2099   91.9439   14.3143 O.3     1  UNL1       -0.5055
     24 C          63.4260   90.5961   12.9910 C.ar    1  UNL1        0.0344
     25 H          65.9034   92.5738   14.3310 H       1  UNL1        0.2922
     26 N          59.2513   89.0403   12.6634 N.am    1  UNL1       -0.3272
     27 C          60.2138   89.7034   11.7233 C.2     1  UNL1        0.2415
     28 O          59.7480   90.8217   10.8386 O.2     1  UNL1       -0.2732
     29 H          58.3139   89.3390   12.6998 H       1  UNL1        0.1450
     30 H          59.5569   88.3063   13.2441 H       1  UNL1        0.1450
@<TRIPOS>BOND
     1    26    27   am
     2    27    28    2
     3    27    17    1
     4    17     1    1
     5     1     3    1
     6     3     4    2
     7     4     9    1
     8     9    11    1
     9    11    12   ar
    10    12    13   ar
    11    13    14   ar
    12    14    15   ar
    13    15    16   ar
    14     4     5    1
    15     5     6    2
    16     5     7    1
    17     7     8    2
    18    17    18    1
    19    18    19   ar
    20    19    20   ar
    21    20    21   ar
    22    21    22   ar
    23    22    23    1
    24    22    24   ar
    25     7     3    1
    26    24    18   ar
    27    16    11   ar
    28    26    29    1
    29    26    30    1
    30     1     2    1
    31     9    10    1
    32    23    25    1
@<TRIPOS>MOLECULE
*****
 30 32 0 0 0
SMALL
GASTEIGER

@<TRIPOS>ATOM
      1 N          62.7493   87.8378   11.5836 N.pl3   1  UNL1       -0.3200
      2 H          63.6449   88.0610   11.9262 H       1  UNL1        0.1476
      3 C          61.7061   88.9083   11.4577 C.2     1  UNL1        0.1048
      4 C          61.6885   90.3165   10.9413 C.2     1  UNL1        0.1077
      5 C          60.2309   90.4223   11.2796 C.2     1  UNL1        0.2500
      6 O          59.1878   91.4928   11.1537 O.2     1  UNL1       -0.2817
      7 C          60.2486   89.0141   11.7960 C.2     1  UNL1        0.2498
      8 O          59.2305   88.0931   12.4004 O.2     1  UNL1       -0.2817
      9 N          62.7066   91.2375   10.3369 N.pl3   1  UNL1       -0.3088
     10 H          62.5817   91.5761    9.4210 H       1  UNL1        0.1523
     11 C          63.9150   91.6424   11.1281 C.ar    1  UNL1        0.0515
     12 C          65.0182   92.4161   10.4691 C.ar    1  UNL1        0.0353
     13 C          66.2265   92.8209   11.2603 C.ar    1  UNL1        0.1002
     14 N          66.3316   92.4522   12.7105 N.ar    1  UNL1       -0.2422
     15 C          65.2283   91.6785   13.3695 C.ar    1  UNL1        0.1002
     16 C          64.0200   91.2736   12.5783 C.ar    1  UNL1        0.0353
     17 C          62.4279   86.4272   11.1875 C.3     1  UNL1        0.1695
     18 C          61.9033   86.1352    9.8129 C.ar    1  UNL1        0.0072
     19 C          62.7897   85.4805    8.7952 C.ar    1  UNL1       -0.0020
     20 C          62.2650   85.1885    7.4207 C.ar    1  UNL1        0.0028
     21 C          60.8539   85.5511    7.0638 C.ar    1  UNL1        0.0366
     22 C          59.9675   86.2058    8.0815 C.ar    1  UNL1        0.1334
     23 O          58.5564   86.5684    7.7247 O.3     1  UNL1       -0.5055
     24 C          60.4922   86.4978    9.4561 C.ar    1  UNL1        0.0344
     25 H          58.2287   86.3860    6.8660 H       1  UNL1        0.2922
     26 N          63.1301   85.6037   13.5495 N.am    1  UNL1       -0.3272
     27 C          62.6312   85.3085   12.1660 C.2     1  UNL1        0.2415
     28 O          62.3357   83.8948   11.7610 O.2     1  UNL1       -0.2732
     29 H          63.2635   84.8696   14.1917 H       1  UNL1        0.1450
     30 H          63.3240   86.5316   13.8153 H       1  UNL1        0.1450
@<TRIPOS>BOND
     1    26    27   am
     2    27    28    2
     3    27    17    1
     4    17     1    1
     5     1     3    1
     6     3     4    2
     7     4     9    1
     8     9    11    1
     9    11    12   ar
    10    12    13   ar
    11    13    14   ar
    12    14    15   ar
    13    15    16   ar
    14     4     5    1
    15     5     6    2
    16     5     7    1
    17     7     8    2
    18    17    18    1
    19    18    19   ar
    20    19    20   ar
    21    20    21   ar
    22    21    22   ar
    23    22    23    1
    24    22    24   ar
    25     7     3    1
    26    24    18   ar
    27    16    11   ar
    28    26    29    1
    29    26    30    1
    30     1     2    1
    31     9    10    1
    32    23    25    1
