@<TRIPOS>MOLECULE
*****
 40 44 0 0 0
SMALL
GASTEIGER

@<TRIPOS>ATOM
      1 C          58.8116   89.9250    7.0752 C.3     1  UNL1        0.0993
      2 N          59.3592   90.6196    5.8636 N.3     1  UNL1       -0.2690
      3 C          58.4291   91.3095    4.9102 C.3     1  UNL1        0.0724
      4 C          58.9766   92.0040    3.6987 C.3     1  UNL1        0.0195
      5 C          60.4542   92.0086    3.4405 C.3     1  UNL1        0.0300
      6 C          61.3843   91.3187    4.3939 C.3     1  UNL1        0.0195
      7 C          60.8368   90.6242    5.6054 C.3     1  UNL1        0.0724
      8 C          61.9007   92.0967    3.0531 C.3     1  UNL1        0.0873
      9 C          61.9919   92.8795    1.7768 C.2     1  UNL1        0.2294
     10 O          63.2519   93.2089    1.0325 O.2     1  UNL1       -0.2745
     11 N          60.6018   93.2752    1.3754 N.am    1  UNL1       -0.2586
     12 C          59.6515   92.7370    2.4036 C.3     1  UNL1        0.0986
     13 C          60.2277   94.0696    0.1594 C.ar    1  UNL1        0.0538
     14 C          59.3939   93.4429   -0.9187 C.ar    1  UNL1        0.0149
     15 C          59.0198   94.2374   -2.1348 C.ar    1  UNL1        0.0024
     16 C          59.4794   95.6586   -2.2728 C.ar    1  UNL1        0.0141
     17 C          60.3132   96.2853   -1.1948 C.ar    1  UNL1        0.0024
     18 C          60.6872   95.4908    0.0213 C.ar    1  UNL1        0.0149
     19 C          59.1053   96.4530   -3.4889 C.2     1  UNL1        0.0729
     20 O          60.1592   96.8466   -4.4812 O.co2   1  UNL1       -0.5446
     21 O          57.6773   96.8540   -3.7128 O.co2   1  UNL1       -0.5446
     22 C          61.2730   88.2166    9.6777 C.ar    1  UNL1        0.1411
     23 C          60.4529   89.2580    8.9755 C.ar    1  UNL1        0.0342
     24 C          59.6317   88.8837    7.7774 C.ar    1  UNL1       -0.0001
     25 C          59.6306   87.4680    7.2814 C.ar    1  UNL1        0.0342
     26 C          60.4506   86.4267    7.9836 C.ar    1  UNL1        0.1411
     27 C          61.2718   86.8010    9.1818 C.ar    1  UNL1        0.0679
     28 C          62.0919   85.7597    9.8840 C.ar    1  UNL1        0.0060
     29 C          61.8805   85.4987   11.3459 C.ar    1  UNL1        0.0025
     30 C          62.7007   84.4573   12.0481 C.ar    1  UNL1        0.0296
     31 C          63.7321   83.6770   11.2884 C.ar    1  UNL1        0.1401
     32 F          64.5521   82.6357   11.9906 F       1  UNL1       -0.2042
     33 C          63.9434   83.9380    9.8264 C.ar    1  UNL1        0.0296
     34 C          63.1234   84.9793    9.1242 C.ar    1  UNL1        0.0025
     35 O          62.0942   88.5909   10.8758 O.3     1  UNL1       -0.4754
     36 C          63.3355   90.8462   11.2268 C.3     1  UNL1        0.0512
     37 C          62.0997   90.0078   11.3684 C.3     1  UNL1        0.2055
     38 O          60.4495   85.0111    7.4877 O.3     1  UNL1       -0.4754
     39 C          60.9637   84.6972    6.1140 C.3     1  UNL1        0.2055
     40 C          62.4376   84.5425    5.8821 C.3     1  UNL1        0.0512
@<TRIPOS>UNITY_ATOM_ATTR
20 1
charge -1
@<TRIPOS>BOND
     1    36    37    1
     2    37    35    1
     3    35    22    1
     4    22    23   ar
     5    23    24   ar
     6    24     1    1
     7     1     2    1
     8     2     3    1
     9     3     4    1
    10     4     5    1
    11     5     6    1
    12     6     7    1
    13     5     8    1
    14     8     9    1
    15     9    10    2
    16     9    11   am
    17    11    13    1
    18    13    14   ar
    19    14    15   ar
    20    15    16   ar
    21    16    19    1
    22    19    20   ar
    23    19    21   ar
    24    16    17   ar
    25    17    18   ar
    26    11    12    1
    27    24    25   ar
    28    25    26   ar
    29    26    38    1
    30    38    39    1
    31    39    40    1
    32    26    27   ar
    33    27    28    1
    34    28    29   ar
    35    29    30   ar
    36    30    31   ar
    37    31    32    1
    38    31    33   ar
    39    33    34   ar
    40    27    22   ar
    41    34    28   ar
    42     7     2    1
    43    18    13   ar
    44    12     5    1
@<TRIPOS>MOLECULE
*****
 40 44 0 0 0
SMALL
GASTEIGER

@<TRIPOS>ATOM
      1 C          58.9458   90.0187    7.2337 C.3     1  UNL1        0.0993
      2 N          59.4424   90.6736    5.9789 N.3     1  UNL1       -0.2690
      3 C          58.4828   91.3927    5.0778 C.3     1  UNL1        0.0724
      4 C          58.9795   92.0476    3.8230 C.3     1  UNL1        0.0195
      5 C          60.4359   91.9833    3.4694 C.3     1  UNL1        0.0300
      6 C          61.3955   91.2643    4.3705 C.3     1  UNL1        0.0195
      7 C          60.8988   90.6094    5.6252 C.3     1  UNL1        0.0724
      8 C          61.8563   92.0024    2.9876 C.3     1  UNL1        0.0873
      9 C          61.8976   92.7650    1.6965 C.2     1  UNL1        0.2294
     10 O          63.1193   93.0290    0.8671 O.2     1  UNL1       -0.2745
     11 N          60.5027   93.2172    1.3804 N.am    1  UNL1       -0.2586
     12 C          59.5993   92.7342    2.4760 C.3     1  UNL1        0.0986
     13 C          60.0847   94.0128    0.1795 C.ar    1  UNL1        0.0538
     14 C          60.2730   93.4477   -1.1972 C.ar    1  UNL1        0.0149
     15 C          59.8549   94.2434   -2.3981 C.ar    1  UNL1        0.0024
     16 C          59.2486   95.6041   -2.2224 C.ar    1  UNL1        0.0141
     17 C          59.0604   96.1692   -0.8456 C.ar    1  UNL1        0.0024
     18 C          59.4784   95.3735    0.3552 C.ar    1  UNL1        0.0149
     19 C          58.8306   96.3997   -3.4233 C.2     1  UNL1        0.0729
     20 O          59.8584   96.8535   -4.4172 O.co2   1  UNL1       -0.5446
     21 O          57.3848   96.7415   -3.6304 O.co2   1  UNL1       -0.5446
     22 C          60.4720   86.4408    8.0203 C.ar    1  UNL1        0.1411
     23 C          59.6655   87.5262    7.3709 C.ar    1  UNL1        0.0342
     24 C          59.7522   88.9334    7.8830 C.ar    1  UNL1       -0.0001
     25 C          60.6453   89.2552    9.0444 C.ar    1  UNL1        0.0342
     26 C          61.4517   88.1698    9.6937 C.ar    1  UNL1        0.1411
     27 C          61.3650   86.7626    9.1816 C.ar    1  UNL1        0.0679
     28 C          62.1714   85.6772    9.8309 C.ar    1  UNL1        0.0060
     29 C          61.9936   85.3819   11.2908 C.ar    1  UNL1        0.0025
     30 C          62.8001   84.2965   11.9401 C.ar    1  UNL1        0.0296
     31 C          63.7843   83.5064   11.1295 C.ar    1  UNL1        0.1401
     32 F          64.5907   82.4210   11.7788 F       1  UNL1       -0.2042
     33 C          63.9621   83.8017    9.6697 C.ar    1  UNL1        0.0296
     34 C          63.1557   84.8871    9.0204 C.ar    1  UNL1        0.0025
     35 O          60.3854   85.0335    7.5082 O.3     1  UNL1       -0.4754
     36 C          62.4042   84.5004    5.9622 C.3     1  UNL1        0.0512
     37 C          60.9289   84.6942    6.1519 C.3     1  UNL1        0.2055
     38 O          62.3447   88.4917   10.8551 O.3     1  UNL1       -0.4754
     39 C          62.1865   89.7926   11.5849 C.3     1  UNL1        0.2055
     40 C          63.3913   90.6317   11.8920 C.3     1  UNL1        0.0512
@<TRIPOS>UNITY_ATOM_ATTR
20 1
charge -1
@<TRIPOS>BOND
     1    36    37    1
     2    37    35    1
     3    35    22    1
     4    22    23   ar
     5    23    24   ar
     6    24     1    1
     7     1     2    1
     8     2     3    1
     9     3     4    1
    10     4     5    1
    11     5     6    1
    12     6     7    1
    13     5     8    1
    14     8     9    1
    15     9    10    2
    16     9    11   am
    17    11    13    1
    18    13    14   ar
    19    14    15   ar
    20    15    16   ar
    21    16    19    1
    22    19    20   ar
    23    19    21   ar
    24    16    17   ar
    25    17    18   ar
    26    11    12    1
    27    24    25   ar
    28    25    26   ar
    29    26    38    1
    30    38    39    1
    31    39    40    1
    32    26    27   ar
    33    27    28    1
    34    28    29   ar
    35    29    30   ar
    36    30    31   ar
    37    31    32    1
    38    31    33   ar
    39    33    34   ar
    40    27    22   ar
    41    34    28   ar
    42     7     2    1
    43    18    13   ar
    44    12     5    1
@<TRIPOS>MOLECULE
*****
 40 44 0 0 0
SMALL
GASTEIGER

@<TRIPOS>ATOM
      1 C          58.4025   89.6998    7.0739 C.3     1  UNL1        0.0993
      2 N          58.8381   90.5391    5.9094 N.3     1  UNL1       -0.2690
      3 C          60.2840   90.9034    5.7468 C.3     1  UNL1        0.0724
      4 C          60.7195   91.7426    4.5823 C.3     1  UNL1        0.0195
      5 C          59.7091   92.2174    3.5804 C.3     1  UNL1        0.0300
      6 C          58.2632   91.8530    3.7431 C.3     1  UNL1        0.0195
      7 C          57.8277   91.0138    4.9076 C.3     1  UNL1        0.0724
      8 C          58.8178   92.7622    2.5040 C.3     1  UNL1        0.0873
      9 C          59.6703   93.5407    1.5461 C.2     1  UNL1        0.2294
     10 O          59.1891   94.2570    0.3192 O.2     1  UNL1       -0.2745
     11 N          61.0885   93.4769    2.0307 N.am    1  UNL1       -0.2586
     12 C          61.1125   92.6591    3.2879 C.3     1  UNL1        0.0986
     13 C          62.2744   94.1184    1.3734 C.ar    1  UNL1        0.0538
     14 C          62.3550   95.6123    1.2651 C.ar    1  UNL1        0.0149
     15 C          63.5409   96.2537    0.6078 C.ar    1  UNL1        0.0024
     16 C          64.6463   95.4013    0.0587 C.ar    1  UNL1        0.0141
     17 C          64.5657   93.9073    0.1669 C.ar    1  UNL1        0.0024
     18 C          63.3797   93.2659    0.8243 C.ar    1  UNL1        0.0149
     19 C          65.8323   96.0427   -0.5986 C.2     1  UNL1        0.0729
     20 O          66.9115   96.6607    0.2402 O.co2   1  UNL1       -0.5446
     21 O          65.9390   96.0663   -2.0946 O.co2   1  UNL1       -0.5446
     22 C          61.2279   88.0973    9.3541 C.ar    1  UNL1        0.1411
     23 C          60.2864   89.1030    8.7606 C.ar    1  UNL1        0.0342
     24 C          59.3440   88.6942    7.6675 C.ar    1  UNL1       -0.0001
     25 C          59.3431   87.2798    7.1680 C.ar    1  UNL1        0.0342
     26 C          60.2845   86.2742    7.7615 C.ar    1  UNL1        0.1411
     27 C          61.2269   86.6829    8.8546 C.ar    1  UNL1        0.0679
     28 C          62.1684   85.6773    9.4481 C.ar    1  UNL1        0.0060
     29 C          63.2490   85.0712    8.6026 C.ar    1  UNL1        0.0025
     30 C          64.1905   84.0656    9.1962 C.ar    1  UNL1        0.0296
     31 C          64.0514   83.6661   10.6353 C.ar    1  UNL1        0.1401
     32 F          64.9928   82.6604   11.2288 F       1  UNL1       -0.2042
     33 C          62.9708   84.2722   11.4808 C.ar    1  UNL1        0.0296
     34 C          62.0293   85.2778   10.8873 C.ar    1  UNL1        0.0025
     35 O          62.1703   88.5060   10.4472 O.3     1  UNL1       -0.4754
     36 C          63.0768   90.9339   10.2631 C.3     1  UNL1        0.0512
     37 C          62.1881   89.9261   10.9300 C.3     1  UNL1        0.2055
     38 O          60.2836   84.8598    7.2620 O.3     1  UNL1       -0.4754
     39 C          60.8518   84.5413    5.9107 C.3     1  UNL1        0.2055
     40 C          62.3371   84.4456    5.7253 C.3     1  UNL1        0.0512
@<TRIPOS>UNITY_ATOM_ATTR
20 1
charge -1
@<TRIPOS>BOND
     1    36    37    1
     2    37    35    1
     3    35    22    1
     4    22    23   ar
     5    23    24   ar
     6    24     1    1
     7     1     2    1
     8     2     3    1
     9     3     4    1
    10     4     5    1
    11     5     6    1
    12     6     7    1
    13     5     8    1
    14     8     9    1
    15     9    10    2
    16     9    11   am
    17    11    13    1
    18    13    14   ar
    19    14    15   ar
    20    15    16   ar
    21    16    19    1
    22    19    20   ar
    23    19    21   ar
    24    16    17   ar
    25    17    18   ar
    26    11    12    1
    27    24    25   ar
    28    25    26   ar
    29    26    38    1
    30    38    39    1
    31    39    40    1
    32    26    27   ar
    33    27    28    1
    34    28    29   ar
    35    29    30   ar
    36    30    31   ar
    37    31    32    1
    38    31    33   ar
    39    33    34   ar
    40    27    22   ar
    41    34    28   ar
    42     7     2    1
    43    18    13   ar
    44    12     5    1
@<TRIPOS>MOLECULE
*****
 40 44 0 0 0
SMALL
GASTEIGER

@<TRIPOS>ATOM
      1 C          59.0107   88.9651    6.4669 C.3     1  UNL1        0.0993
      2 N          59.3982   90.1026    5.5691 N.3     1  UNL1       -0.2690
      3 C          60.7974   90.1946    5.0365 C.3     1  UNL1        0.0724
      4 C          61.1849   91.3321    4.1387 C.3     1  UNL1        0.0195
      5 C          60.1731   92.3775    3.7736 C.3     1  UNL1        0.0300
      6 C          58.7739   92.2855    4.3062 C.3     1  UNL1        0.0195
      7 C          58.3865   91.1481    5.2039 C.3     1  UNL1        0.0724
      8 C          59.2747   93.4915    3.3241 C.3     1  UNL1        0.0873
      9 C          60.0734   94.4033    2.4403 C.2     1  UNL1        0.2294
     10 O          59.5687   95.6471    1.7709 O.2     1  UNL1       -0.2745
     11 N          61.4654   93.8527    2.3436 N.am    1  UNL1       -0.2586
     12 C          61.5270   92.6008    3.1676 C.3     1  UNL1        0.0986
     13 C          62.5970   94.4494    1.5605 C.ar    1  UNL1        0.0538
     14 C          62.7995   95.9356    1.5489 C.ar    1  UNL1        0.0149
     15 C          63.9312   96.5322    0.7657 C.ar    1  UNL1        0.0024
     16 C          64.8604   95.6427   -0.0058 C.ar    1  UNL1        0.0141
     17 C          64.6579   94.1564    0.0058 C.ar    1  UNL1        0.0024
     18 C          63.5262   93.5598    0.7890 C.ar    1  UNL1        0.0149
     19 C          65.9920   96.2394   -0.7890 C.2     1  UNL1        0.0729
     20 O          65.9586   96.2200   -2.2885 O.co2   1  UNL1       -0.5446
     21 O          67.1571   96.8553   -0.0726 O.co2   1  UNL1       -0.5446
     22 C          60.7093   89.2974   10.0382 C.ar    1  UNL1        0.1411
     23 C          59.8820   89.6126    8.8273 C.ar    1  UNL1        0.0342
     24 C          59.8380   88.6500    7.6778 C.ar    1  UNL1       -0.0001
     25 C          60.6213   87.3721    7.7392 C.ar    1  UNL1        0.0342
     26 C          61.4485   87.0570    8.9500 C.ar    1  UNL1        0.1411
     27 C          61.4926   88.0196   10.0996 C.ar    1  UNL1        0.0679
     28 C          62.3198   87.7045   11.3104 C.ar    1  UNL1        0.0060
     29 C          62.4361   86.2885   11.7916 C.ar    1  UNL1        0.0025
     30 C          63.2634   85.9734   13.0025 C.ar    1  UNL1        0.0296
     31 C          63.9744   87.0743   13.7323 C.ar    1  UNL1        0.1401
     32 F          64.8017   86.7591   14.9432 F       1  UNL1       -0.2042
     33 C          63.8581   88.4902   13.2512 C.ar    1  UNL1        0.0296
     34 C          63.0309   88.8054   12.0403 C.ar    1  UNL1        0.0025
     35 O          60.7533   90.2600   11.1877 O.3     1  UNL1       -0.4754
     36 C          58.8348   89.2905   12.6470 C.3     1  UNL1        0.0512
     37 C          59.5354   90.4688   12.0382 C.3     1  UNL1        0.2055
     38 O          62.2318   85.7792    9.0114 O.3     1  UNL1       -0.4754
     39 C          62.9891   85.3051    7.8065 C.3     1  UNL1        0.2055
     40 C          62.2651   84.6123    6.6904 C.3     1  UNL1        0.0512
@<TRIPOS>UNITY_ATOM_ATTR
20 1
charge -1
@<TRIPOS>BOND
     1    36    37    1
     2    37    35    1
     3    35    22    1
     4    22    23   ar
     5    23    24   ar
     6    24     1    1
     7     1     2    1
     8     2     3    1
     9     3     4    1
    10     4     5    1
    11     5     6    1
    12     6     7    1
    13     5     8    1
    14     8     9    1
    15     9    10    2
    16     9    11   am
    17    11    13    1
    18    13    14   ar
    19    14    15   ar
    20    15    16   ar
    21    16    19    1
    22    19    20   ar
    23    19    21   ar
    24    16    17   ar
    25    17    18   ar
    26    11    12    1
    27    24    25   ar
    28    25    26   ar
    29    26    38    1
    30    38    39    1
    31    39    40    1
    32    26    27   ar
    33    27    28    1
    34    28    29   ar
    35    29    30   ar
    36    30    31   ar
    37    31    32    1
    38    31    33   ar
    39    33    34   ar
    40    27    22   ar
    41    34    28   ar
    42     7     2    1
    43    18    13   ar
    44    12     5    1
@<TRIPOS>MOLECULE
*****
 40 44 0 0 0
SMALL
GASTEIGER

@<TRIPOS>ATOM
      1 C          58.9933   88.8338    6.5994 C.3     1  UNL1        0.0993
      2 N          59.3660   89.9500    5.6692 N.3     1  UNL1       -0.2690
      3 C          60.7885   90.1094    5.2209 C.3     1  UNL1        0.0724
      4 C          61.1610   91.2256    4.2907 C.3     1  UNL1        0.0195
      5 C          60.1111   92.1824    3.8089 C.3     1  UNL1        0.0300
      6 C          58.6886   92.0230    4.2572 C.3     1  UNL1        0.0195
      7 C          58.3160   90.9068    5.1874 C.3     1  UNL1        0.0724
      8 C          59.1752   93.2110    3.2465 C.3     1  UNL1        0.0873
      9 C          59.9707   94.1304    2.3678 C.2     1  UNL1        0.2294
     10 O          59.4331   95.3040    1.6040 O.2     1  UNL1       -0.2745
     11 N          61.3982   93.6700    2.3872 N.am    1  UNL1       -0.2586
     12 C          61.4850   92.4661    3.2778 C.3     1  UNL1        0.0986
     13 C          62.5386   94.3024    1.6460 C.ar    1  UNL1        0.0538
     14 C          62.5906   95.7922    1.4793 C.ar    1  UNL1        0.0149
     15 C          63.7311   96.4246    0.7381 C.ar    1  UNL1        0.0024
     16 C          64.8196   95.5673    0.1637 C.ar    1  UNL1        0.0141
     17 C          64.7677   94.0774    0.3304 C.ar    1  UNL1        0.0024
     18 C          63.6272   93.4451    1.0716 C.ar    1  UNL1        0.0149
     19 C          65.9601   96.1997   -0.5775 C.2     1  UNL1        0.0729
     20 O          67.0829   96.8431    0.1813 O.co2   1  UNL1       -0.5446
     21 O          65.9779   96.1888   -2.0773 O.co2   1  UNL1       -0.5446
     22 C          61.3899   86.9318    9.1271 C.ar    1  UNL1        0.1411
     23 C          60.5404   87.2217    7.9252 C.ar    1  UNL1        0.0342
     24 C          59.8428   88.5438    7.8012 C.ar    1  UNL1       -0.0001
     25 C          59.9946   89.5760    8.8790 C.ar    1  UNL1        0.0342
     26 C          60.8440   89.2860   10.0808 C.ar    1  UNL1        0.1411
     27 C          61.5417   87.9640   10.2049 C.ar    1  UNL1        0.0679
     28 C          62.3911   87.6740   11.4066 C.ar    1  UNL1        0.0060
     29 C          62.5640   86.2611   11.8796 C.ar    1  UNL1        0.0025
     30 C          63.4135   85.9712   13.0815 C.ar    1  UNL1        0.0296
     31 C          64.0900   87.0942   13.8103 C.ar    1  UNL1        0.1401
     32 F          64.9395   86.8042   15.0121 F       1  UNL1       -0.2042
     33 C          63.9171   88.5071   13.3373 C.ar    1  UNL1        0.0296
     34 C          63.0677   88.7970   12.1355 C.ar    1  UNL1        0.0025
     35 O          62.0876   85.6098    9.2511 O.3     1  UNL1       -0.4754
     36 C          62.5414   84.7416    6.8448 C.3     1  UNL1        0.0512
     37 C          63.0509   85.1676    8.1897 C.3     1  UNL1        0.2055
     38 O          60.9958   90.3182   11.1586 O.3     1  UNL1       -0.4754
     39 C          59.9132   90.4999   12.1809 C.3     1  UNL1        0.2055
     40 C          58.9572   89.3803   12.4680 C.3     1  UNL1        0.0512
@<TRIPOS>UNITY_ATOM_ATTR
20 1
charge -1
@<TRIPOS>BOND
     1    36    37    1
     2    37    35    1
     3    35    22    1
     4    22    23   ar
     5    23    24   ar
     6    24     1    1
     7     1     2    1
     8     2     3    1
     9     3     4    1
    10     4     5    1
    11     5     6    1
    12     6     7    1
    13     5     8    1
    14     8     9    1
    15     9    10    2
    16     9    11   am
    17    11    13    1
    18    13    14   ar
    19    14    15   ar
    20    15    16   ar
    21    16    19    1
    22    19    20   ar
    23    19    21   ar
    24    16    17   ar
    25    17    18   ar
    26    11    12    1
    27    24    25   ar
    28    25    26   ar
    29    26    38    1
    30    38    39    1
    31    39    40    1
    32    26    27   ar
    33    27    28    1
    34    28    29   ar
    35    29    30   ar
    36    30    31   ar
    37    31    32    1
    38    31    33   ar
    39    33    34   ar
    40    27    22   ar
    41    34    28   ar
    42     7     2    1
    43    18    13   ar
    44    12     5    1
@<TRIPOS>MOLECULE
*****
 40 44 0 0 0
SMALL
GASTEIGER

@<TRIPOS>ATOM
      1 C          62.8887   84.7355   16.5168 C.3     1  UNL1        0.0993
      2 N          63.1847   86.1828   16.2567 N.3     1  UNL1       -0.2690
      3 C          63.8518   86.5938   14.9777 C.3     1  UNL1        0.0724
      4 C          64.1478   88.0411   14.7176 C.3     1  UNL1        0.0195
      5 C          63.7767   89.0774   15.7366 C.3     1  UNL1        0.0300
      6 C          63.1096   88.6664   17.0157 C.3     1  UNL1        0.0195
      7 C          62.8136   87.2191   17.2757 C.3     1  UNL1        0.0724
      8 C          63.4657   90.2202   16.6572 C.3     1  UNL1        0.0873
      9 C          63.9325   91.4852   15.9998 C.2     1  UNL1        0.2294
     10 O          63.8196   92.8683   16.5693 O.2     1  UNL1       -0.2745
     11 N          64.5320   91.1242   14.6730 N.am    1  UNL1       -0.2586
     12 C          64.4357   89.6362   14.5103 C.3     1  UNL1        0.0986
     13 C          65.1237   92.0828   13.6828 C.ar    1  UNL1        0.0538
     14 C          64.7453   91.9936   12.2341 C.ar    1  UNL1        0.0149
     15 C          65.3371   92.9523   11.2438 C.ar    1  UNL1        0.0024
     16 C          66.3074   94.0003   11.7023 C.ar    1  UNL1        0.0141
     17 C          66.6860   94.0896   13.1510 C.ar    1  UNL1        0.0024
     18 C          66.0941   93.1308   14.1412 C.ar    1  UNL1        0.0149
     19 C          66.8993   94.9590   10.7120 C.2     1  UNL1        0.0729
     20 O          66.3689   96.3588   10.6142 O.co2   1  UNL1       -0.5446
     21 O          68.0213   94.5180    9.8196 O.co2   1  UNL1       -0.5446
     22 C          61.9834   81.5892   14.2737 C.ar    1  UNL1        0.1411
     23 C          61.9734   82.5721   15.4068 C.ar    1  UNL1        0.0342
     24 C          62.8986   83.7525   15.3838 C.ar    1  UNL1       -0.0001
     25 C          63.8339   83.9500   14.2278 C.ar    1  UNL1        0.0342
     26 C          63.8439   82.9670   13.0948 C.ar    1  UNL1        0.1411
     27 C          62.9187   81.7866   13.1178 C.ar    1  UNL1        0.0679
     28 C          62.9286   80.8037   11.9848 C.ar    1  UNL1        0.0060
     29 C          63.1685   81.2783   10.5822 C.ar    1  UNL1        0.0025
     30 C          63.1785   80.2953    9.4492 C.ar    1  UNL1        0.0296
     31 C          62.9486   78.8377    9.7188 C.ar    1  UNL1        0.1401
     32 F          62.9586   77.8548    8.5858 F       1  UNL1       -0.2042
     33 C          62.7087   78.3632   11.1214 C.ar    1  UNL1        0.0296
     34 C          62.6988   79.3461   12.2543 C.ar    1  UNL1        0.0025
     35 O          61.0581   80.4088   14.2966 O.3     1  UNL1       -0.4754
     36 C          58.6394   79.5171   14.6204 C.3     1  UNL1        0.0512
     37 C          59.5749   80.6168   14.2135 C.3     1  UNL1        0.2055
     38 O          64.7792   83.1645   11.9389 O.3     1  UNL1       -0.4754
     39 C          64.3368   83.9539   10.7425 C.3     1  UNL1        0.2055
     40 C          63.0287   84.6875   10.7699 C.3     1  UNL1        0.0512
@<TRIPOS>UNITY_ATOM_ATTR
20 1
charge -1
@<TRIPOS>BOND
     1    36    37    1
     2    37    35    1
     3    35    22    1
     4    22    23   ar
     5    23    24   ar
     6    24     1    1
     7     1     2    1
     8     2     3    1
     9     3     4    1
    10     4     5    1
    11     5     6    1
    12     6     7    1
    13     5     8    1
    14     8     9    1
    15     9    10    2
    16     9    11   am
    17    11    13    1
    18    13    14   ar
    19    14    15   ar
    20    15    16   ar
    21    16    19    1
    22    19    20   ar
    23    19    21   ar
    24    16    17   ar
    25    17    18   ar
    26    11    12    1
    27    24    25   ar
    28    25    26   ar
    29    26    38    1
    30    38    39    1
    31    39    40    1
    32    26    27   ar
    33    27    28    1
    34    28    29   ar
    35    29    30   ar
    36    30    31   ar
    37    31    32    1
    38    31    33   ar
    39    33    34   ar
    40    27    22   ar
    41    34    28   ar
    42     7     2    1
    43    18    13   ar
    44    12     5    1
@<TRIPOS>MOLECULE
*****
 40 44 0 0 0
SMALL
GASTEIGER

@<TRIPOS>ATOM
      1 C          62.8973   84.7173   16.5211 C.3     1  UNL1        0.0993
      2 N          63.1914   86.1655   16.2639 N.3     1  UNL1       -0.2690
      3 C          63.8565   86.5801   14.9849 C.3     1  UNL1        0.0724
      4 C          64.1506   88.0283   14.7277 C.3     1  UNL1        0.0195
      5 C          63.7795   89.0619   15.7494 C.3     1  UNL1        0.0300
      6 C          63.1144   88.6474   17.0284 C.3     1  UNL1        0.0195
      7 C          62.8204   87.1992   17.2856 C.3     1  UNL1        0.0724
      8 C          63.4684   90.2023   16.6729 C.3     1  UNL1        0.0873
      9 C          63.9330   91.4693   16.0177 C.2     1  UNL1        0.2294
     10 O          63.8193   92.8510   16.5904 O.2     1  UNL1       -0.2745
     11 N          64.5312   91.1118   14.6894 N.am    1  UNL1       -0.2586
     12 C          64.4364   89.6241   14.5236 C.3     1  UNL1        0.0986
     13 C          65.1207   92.0733   13.7006 C.ar    1  UNL1        0.0538
     14 C          66.0940   93.1184   14.1593 C.ar    1  UNL1        0.0149
     15 C          66.6835   94.0800   13.1704 C.ar    1  UNL1        0.0024
     16 C          66.2998   93.9964   11.7228 C.ar    1  UNL1        0.0141
     17 C          65.3264   92.9513   11.2639 C.ar    1  UNL1        0.0024
     18 C          64.7370   91.9898   12.2529 C.ar    1  UNL1        0.0149
     19 C          66.8893   94.9580   10.7339 C.2     1  UNL1        0.0729
     20 O          67.9802   94.5071    9.8082 O.co2   1  UNL1       -0.5446
     21 O          66.3880   96.3703   10.6706 O.co2   1  UNL1       -0.5446
     22 C          63.8530   82.9514   13.0979 C.ar    1  UNL1        0.1411
     23 C          63.8454   83.9316   14.2334 C.ar    1  UNL1        0.0342
     24 C          62.9049   83.7372   15.3857 C.ar    1  UNL1       -0.0001
     25 C          61.9720   82.5626   15.4024 C.ar    1  UNL1        0.0342
     26 C          61.9796   81.5826   14.2669 C.ar    1  UNL1        0.1411
     27 C          62.9201   81.7770   13.1147 C.ar    1  UNL1        0.0679
     28 C          62.9277   80.7969   11.9792 C.ar    1  UNL1        0.0060
     29 C          62.6991   79.3386   12.2456 C.ar    1  UNL1        0.0025
     30 C          62.7067   78.3585   11.1101 C.ar    1  UNL1        0.0296
     31 C          62.9430   78.8367    9.7081 C.ar    1  UNL1        0.1401
     32 F          62.9506   77.8567    8.5727 F       1  UNL1       -0.2042
     33 C          63.1716   80.2951    9.4417 C.ar    1  UNL1        0.0296
     34 C          63.1640   81.2751   10.5772 C.ar    1  UNL1        0.0025
     35 O          64.7935   83.1458   11.9456 O.3     1  UNL1       -0.4754
     36 C          63.0552   84.6803   10.7735 C.3     1  UNL1        0.0512
     37 C          64.3603   83.9412   10.7499 C.3     1  UNL1        0.2055
     38 O          61.0468   80.4081   14.2837 O.3     1  UNL1       -0.4754
     39 C          59.5636   80.6276   14.2357 C.3     1  UNL1        0.2055
     40 C          58.6290   79.5257   14.6384 C.3     1  UNL1        0.0512
@<TRIPOS>UNITY_ATOM_ATTR
20 1
charge -1
@<TRIPOS>BOND
     1    36    37    1
     2    37    35    1
     3    35    22    1
     4    22    23   ar
     5    23    24   ar
     6    24     1    1
     7     1     2    1
     8     2     3    1
     9     3     4    1
    10     4     5    1
    11     5     6    1
    12     6     7    1
    13     5     8    1
    14     8     9    1
    15     9    10    2
    16     9    11   am
    17    11    13    1
    18    13    14   ar
    19    14    15   ar
    20    15    16   ar
    21    16    19    1
    22    19    20   ar
    23    19    21   ar
    24    16    17   ar
    25    17    18   ar
    26    11    12    1
    27    24    25   ar
    28    25    26   ar
    29    26    38    1
    30    38    39    1
    31    39    40    1
    32    26    27   ar
    33    27    28    1
    34    28    29   ar
    35    29    30   ar
    36    30    31   ar
    37    31    32    1
    38    31    33   ar
    39    33    34   ar
    40    27    22   ar
    41    34    28   ar
    42     7     2    1
    43    18    13   ar
    44    12     5    1
@<TRIPOS>MOLECULE
*****
 40 44 0 0 0
SMALL
GASTEIGER

@<TRIPOS>ATOM
      1 C          59.0445   88.9413    6.7885 C.3     1  UNL1        0.0993
      2 N          59.3988   90.0151    5.8028 N.3     1  UNL1       -0.2690
      3 C          60.8258   90.2050    5.3812 C.3     1  UNL1        0.0724
      4 C          61.1800   91.2788    4.3956 C.3     1  UNL1        0.0195
      5 C          60.1073   92.1627    3.8316 C.3     1  UNL1        0.0300
      6 C          58.6804   91.9728    4.2532 C.3     1  UNL1        0.0195
      7 C          58.3262   90.8990    5.2388 C.3     1  UNL1        0.0724
      8 C          59.1480   93.1180    3.1857 C.3     1  UNL1        0.0873
      9 C          59.9310   94.0155    2.2737 C.2     1  UNL1        0.2294
     10 O          59.3693   95.1197    1.4280 O.2     1  UNL1       -0.2745
     11 N          61.3742   93.6147    2.3559 N.am    1  UNL1       -0.2586
     12 C          61.4832   92.4697    3.3187 C.3     1  UNL1        0.0986
     13 C          62.5090   94.2479    1.6069 C.ar    1  UNL1        0.0538
     14 C          62.5318   95.7326    1.3945 C.ar    1  UNL1        0.0149
     15 C          63.6667   96.3658    0.6455 C.ar    1  UNL1        0.0024
     16 C          64.7788   95.5143    0.1087 C.ar    1  UNL1        0.0141
     17 C          64.7561   94.0295    0.3211 C.ar    1  UNL1        0.0024
     18 C          63.6211   93.3964    1.0702 C.ar    1  UNL1        0.0149
     19 C          65.9137   96.1475   -0.6403 C.2     1  UNL1        0.0729
     20 O          67.0239   96.8219    0.1099 O.co2   1  UNL1       -0.5446
     21 O          65.9385   96.1062   -2.1395 O.co2   1  UNL1       -0.5446
     22 C          61.3888   89.6421    9.9131 C.ar    1  UNL1        0.1411
     23 C          60.5201   89.8745    8.7125 C.ar    1  UNL1        0.0342
     24 C          59.9132   88.7090    7.9890 C.ar    1  UNL1       -0.0001
     25 C          60.1750   87.3112    8.4662 C.ar    1  UNL1        0.0342
     26 C          61.0437   87.0789    9.6667 C.ar    1  UNL1        0.1411
     27 C          61.6505   88.2443   10.3902 C.ar    1  UNL1        0.0679
     28 C          62.5192   88.0120   11.5908 C.ar    1  UNL1        0.0060
     29 C          62.8078   86.6129   12.0483 C.ar    1  UNL1        0.0025
     30 C          63.6765   86.3807   13.2490 C.ar    1  UNL1        0.0296
     31 C          64.2566   87.5474   13.9920 C.ar    1  UNL1        0.1401
     32 F          65.1253   87.3151   15.1925 F       1  UNL1       -0.2042
     33 C          63.9680   88.9465   13.5344 C.ar    1  UNL1        0.0296
     34 C          63.0994   89.1788   12.3339 C.ar    1  UNL1        0.0025
     35 O          61.9957   90.8075   10.6366 O.3     1  UNL1       -0.4754
     36 C          64.3024   91.9783   10.8782 C.3     1  UNL1        0.0512
     37 C          63.1437   91.5546   10.0250 C.3     1  UNL1        0.2055
     38 O          61.3054   85.6811   10.1438 O.3     1  UNL1       -0.4754
     39 C          62.5047   84.9306    9.6452 C.3     1  UNL1        0.2055
     40 C          63.0498   85.2120    8.2764 C.3     1  UNL1        0.0512
@<TRIPOS>UNITY_ATOM_ATTR
20 1
charge -1
@<TRIPOS>BOND
     1    36    37    1
     2    37    35    1
     3    35    22    1
     4    22    23   ar
     5    23    24   ar
     6    24     1    1
     7     1     2    1
     8     2     3    1
     9     3     4    1
    10     4     5    1
    11     5     6    1
    12     6     7    1
    13     5     8    1
    14     8     9    1
    15     9    10    2
    16     9    11   am
    17    11    13    1
    18    13    14   ar
    19    14    15   ar
    20    15    16   ar
    21    16    19    1
    22    19    20   ar
    23    19    21   ar
    24    16    17   ar
    25    17    18   ar
    26    11    12    1
    27    24    25   ar
    28    25    26   ar
    29    26    38    1
    30    38    39    1
    31    39    40    1
    32    26    27   ar
    33    27    28    1
    34    28    29   ar
    35    29    30   ar
    36    30    31   ar
    37    31    32    1
    38    31    33   ar
    39    33    34   ar
    40    27    22   ar
    41    34    28   ar
    42     7     2    1
    43    18    13   ar
    44    12     5    1
