@<TRIPOS>MOLECULE
*****
 46 50 0 0 0
SMALL
GASTEIGER

@<TRIPOS>ATOM
      1 C          61.3460   88.6174    9.4833 C.3     1  UNL1        0.1390
      2 C          60.5522   89.7821    8.9702 C.3     1  UNL1        0.0932
      3 N          59.4837   89.5658    7.9399 N.3     1  UNL1       -0.2883
      4 C          59.2089   88.1848    7.4228 C.3     1  UNL1        0.1555
      5 C          60.0027   87.0201    7.9360 C.2     1  UNL1        0.2456
      6 O          59.7280   85.6391    7.4189 O.2     1  UNL1       -0.2730
      7 N          61.0712   87.2364    8.9662 N.am    1  UNL1       -0.2541
      8 H          59.7323   90.1382    7.1332 H       1  UNL1        0.1237
      9 C          61.8651   86.0717    9.4794 C.ar    1  UNL1        0.0542
     10 C          62.8409   85.3740    8.5788 C.ar    1  UNL1        0.0180
     11 C          63.6347   84.2093    9.0919 C.ar    1  UNL1        0.0382
     12 C          63.4528   83.7423   10.5057 C.ar    1  UNL1        0.1386
     13 C          62.4771   84.4400   11.4064 C.ar    1  UNL1        0.0382
     14 C          61.6832   85.6047   10.8932 C.ar    1  UNL1        0.0180
     15 O          64.2467   82.5776   11.0189 O.3     1  UNL1       -0.4754
     16 C          63.5606   81.2797   11.3267 C.3     1  UNL1        0.2080
     17 C          62.3160   81.2694   12.1639 C.3     1  UNL1        0.0794
     18 C          62.3111   80.5720   13.4919 C.3     1  UNL1        0.1465
     19 O          62.7025   81.3187   14.7326 O.3     1  UNL1       -0.3488
     20 C          62.3289   82.7631   14.8879 C.3     1  UNL1        0.1716
     21 C          63.3951   83.8182   14.8837 C.ar    1  UNL1        0.0413
     22 C          64.6509   83.6122   14.0896 C.ar    1  UNL1        0.0012
     23 C          65.7172   84.6674   14.0855 C.ar    1  UNL1       -0.0000
     24 C          65.5275   85.9284   14.8752 C.ar    1  UNL1        0.0031
     25 C          64.2716   86.1343   15.6692 C.ar    1  UNL1        0.0367
     26 C          63.2055   85.0793   15.6735 C.ar    1  UNL1        0.1370
     27 O          61.9496   85.2852   16.4675 O.3     1  UNL1       -0.4717
     28 C          61.8996   86.3416   17.5312 C.3     1  UNL1        0.2525
     29 C          62.4146   88.8337   10.5136 C.3     1  UNL1        0.2267
     30 O          62.0449   88.9647   11.9614 O.3     1  UNL1       -0.4736
     31 N          65.5156   92.7354   12.8195 N.am    1  UNL1       -0.2587
     32 C          66.4141   93.4849   13.7581 C.2     1  UNL1        0.2297
     33 O          67.2510   94.6207   13.2486 O.2     1  UNL1       -0.2745
     34 C          66.4755   93.0988   15.2062 C.3     1  UNL1        0.0903
     35 C          65.6386   91.9630   15.7158 C.3     1  UNL1        0.0372
     36 C          64.7402   91.2135   14.7772 C.ar    1  UNL1       -0.0078
     37 C          63.9032   90.0777   15.2867 C.ar    1  UNL1        0.0001
     38 C          63.0048   89.3282   14.3482 C.ar    1  UNL1        0.0367
     39 C          62.9433   89.7143   12.9000 C.ar    1  UNL1        0.1399
     40 C          63.7802   90.8500   12.3904 C.ar    1  UNL1        0.0515
     41 C          64.6787   91.5996   13.3291 C.ar    1  UNL1        0.0528
     42 C          65.4541   93.1215   11.3714 C.3     1  UNL1        0.1008
     43 C          66.5151   92.6473   10.4230 C.3     1  UNL1        0.0539
     44 C          67.2193   93.6288    9.5337 C.3     1  UNL1        0.1440
     45 C          66.7761   96.1687    9.8532 C.3     1  UNL1        0.1741
     46 O          67.6404   94.9630   10.0747 O.3     1  UNL1       -0.3510
@<TRIPOS>BOND
     1    45    46    1
     2    46    44    1
     3    44    43    1
     4    43    42    1
     5    42    31    1
     6    31    32   am
     7    32    33    2
     8    32    34    1
     9    34    35    1
    10    35    36    1
    11    36    37   ar
    12    37    38   ar
    13    38    39   ar
    14    39    30    1
    15    30    29    1
    16     1    29    1
    17     1     2    1
    18     2     3    1
    19     3     4    1
    20     4     5    1
    21     5     6    2
    22     5     7   am
    23     7     9    1
    24     9    10   ar
    25    10    11   ar
    26    11    12   ar
    27    12    15    1
    28    15    16    1
    29    16    17    1
    30    17    18    1
    31    18    19    1
    32    19    20    1
    33    20    21    1
    34    21    22   ar
    35    22    23   ar
    36    23    24   ar
    37    24    25   ar
    38    25    26   ar
    39    26    27    1
    40    27    28    1
    41    12    13   ar
    42    13    14   ar
    43    39    40   ar
    44    40    41   ar
    45    41    31    1
    46    41    36   ar
    47     7     1    1
    48    14     9   ar
    49    26    21   ar
    50     3     8    1
@<TRIPOS>MOLECULE
*****
 46 50 0 0 0
SMALL
GASTEIGER

@<TRIPOS>ATOM
      1 C          64.8478   91.9664   12.5295 C.3     1  UNL1        0.1390
      2 C          65.5786   92.9299   11.6420 C.3     1  UNL1        0.0932
      3 N          66.9095   93.4774   12.0647 N.3     1  UNL1       -0.2883
      4 C          67.5097   93.0615   13.3750 C.3     1  UNL1        0.1555
      5 C          66.7789   92.0980   14.2625 C.2     1  UNL1        0.2456
      6 O          67.3791   91.6821   15.5728 O.2     1  UNL1       -0.2730
      7 N          65.4480   91.5505   13.8398 N.am    1  UNL1       -0.2541
      8 H          66.8146   94.4926   12.0933 H       1  UNL1        0.1237
      9 C          64.7172   90.5870   14.7273 C.ar    1  UNL1        0.0542
     10 C          64.7497   89.1178   14.4266 C.ar    1  UNL1        0.0180
     11 C          64.0189   88.1543   15.3141 C.ar    1  UNL1        0.0382
     12 C          63.2556   88.6600   16.5023 C.ar    1  UNL1        0.1386
     13 C          63.2231   90.1292   16.8029 C.ar    1  UNL1        0.0382
     14 C          63.9539   91.0927   15.9154 C.ar    1  UNL1        0.0180
     15 O          62.5248   87.6965   17.3897 O.3     1  UNL1       -0.4754
     16 C          62.8187   86.2280   17.3051 C.3     1  UNL1        0.2080
     17 C          62.0236   85.3562   16.3791 C.3     1  UNL1        0.0794
     18 C          62.6145   84.0793   15.8591 C.3     1  UNL1        0.1465
     19 O          63.8435   84.1169   14.9998 O.3     1  UNL1       -0.3488
     20 C          64.4492   82.8385   14.5010 C.3     1  UNL1        0.1716
     21 C          64.0852   82.3159   13.1429 C.ar    1  UNL1        0.0413
     22 C          64.8169   82.8075   11.9293 C.ar    1  UNL1        0.0012
     23 C          64.4528   82.2848   10.5711 C.ar    1  UNL1       -0.0000
     24 C          63.3571   81.2707   10.4268 C.ar    1  UNL1        0.0031
     25 C          62.6255   80.7791   11.6404 C.ar    1  UNL1        0.0367
     26 C          62.9895   81.3017   12.9985 C.ar    1  UNL1        0.1370
     27 O          62.2578   80.8101   14.2122 O.3     1  UNL1       -0.4717
     28 C          60.7581   80.7823   14.2237 C.3     1  UNL1        0.2525
     29 C          63.5168   91.4188   12.1068 C.3     1  UNL1        0.2267
     30 O          63.3822   89.9686   11.7480 O.3     1  UNL1       -0.4736
     31 N          61.4205   86.4936    8.4198 N.am    1  UNL1       -0.2587
     32 C          60.3136   86.0451    7.5124 C.2     1  UNL1        0.2297
     33 O          60.4398   84.7561    6.7558 O.2     1  UNL1       -0.2745
     34 C          59.0805   86.8857    7.3616 C.3     1  UNL1        0.0903
     35 C          58.9543   88.1747    8.1182 C.3     1  UNL1        0.0372
     36 C          60.0612   88.6232    9.0256 C.ar    1  UNL1       -0.0078
     37 C          59.9350   89.9122    9.7822 C.ar    1  UNL1        0.0001
     38 C          61.0420   90.3607   10.6897 C.ar    1  UNL1        0.0367
     39 C          62.2752   89.5201   10.8405 C.ar    1  UNL1        0.1399
     40 C          62.4014   88.2311   10.0839 C.ar    1  UNL1        0.0515
     41 C          61.2944   87.7826    9.1764 C.ar    1  UNL1        0.0528
     42 C          62.6538   85.6530    8.5707 C.3     1  UNL1        0.1008
     43 C          62.9199   84.9368    9.8614 C.3     1  UNL1        0.0539
     44 C          61.8430   84.8396   10.9012 C.3     1  UNL1        0.1440
     45 C          63.2849   86.1525   12.6178 C.3     1  UNL1        0.1741
     46 O          62.1281   85.2465   12.3165 O.3     1  UNL1       -0.3510
@<TRIPOS>BOND
     1    45    46    1
     2    46    44    1
     3    44    43    1
     4    43    42    1
     5    42    31    1
     6    31    32   am
     7    32    33    2
     8    32    34    1
     9    34    35    1
    10    35    36    1
    11    36    37   ar
    12    37    38   ar
    13    38    39   ar
    14    39    30    1
    15    30    29    1
    16     1    29    1
    17     1     2    1
    18     2     3    1
    19     3     4    1
    20     4     5    1
    21     5     6    2
    22     5     7   am
    23     7     9    1
    24     9    10   ar
    25    10    11   ar
    26    11    12   ar
    27    12    15    1
    28    15    16    1
    29    16    17    1
    30    17    18    1
    31    18    19    1
    32    19    20    1
    33    20    21    1
    34    21    22   ar
    35    22    23   ar
    36    23    24   ar
    37    24    25   ar
    38    25    26   ar
    39    26    27    1
    40    27    28    1
    41    12    13   ar
    42    13    14   ar
    43    39    40   ar
    44    40    41   ar
    45    41    31    1
    46    41    36   ar
    47     7     1    1
    48    14     9   ar
    49    26    21   ar
    50     3     8    1
@<TRIPOS>MOLECULE
*****
 46 50 0 0 0
SMALL
GASTEIGER

@<TRIPOS>ATOM
      1 C          61.8574   86.4587    8.5816 C.3     1  UNL1        0.1390
      2 C          61.0595   85.5545    7.6895 C.3     1  UNL1        0.0932
      3 N          59.6144   85.8522    7.4192 N.3     1  UNL1       -0.2883
      4 C          58.9673   87.0541    8.0409 C.3     1  UNL1        0.1555
      5 C          59.7651   87.9583    8.9330 C.2     1  UNL1        0.2456
      6 O          59.1179   89.1602    9.5548 O.2     1  UNL1       -0.2730
      7 N          61.2102   87.6605    9.2034 N.am    1  UNL1       -0.2541
      8 H          59.0832   85.0385    7.7289 H       1  UNL1        0.1237
      9 C          62.0081   88.5647   10.0955 C.ar    1  UNL1        0.0542
     10 C          62.4326   88.0932   11.4547 C.ar    1  UNL1        0.0180
     11 C          63.2305   88.9973   12.3469 C.ar    1  UNL1        0.0382
     12 C          63.6040   90.3730   11.8798 C.ar    1  UNL1        0.1386
     13 C          63.1795   90.8445   10.5205 C.ar    1  UNL1        0.0382
     14 C          62.3815   89.9403    9.6284 C.ar    1  UNL1        0.0180
     15 O          64.4019   91.2771   12.7719 O.3     1  UNL1       -0.4754
     16 C          65.0346   90.7330   14.0184 C.3     1  UNL1        0.2080
     17 C          66.2942   91.3495   14.5506 C.3     1  UNL1        0.0794
     18 C          66.3390   92.8168   14.8586 C.3     1  UNL1        0.1465
     19 O          66.8977   93.7779   13.8514 O.3     1  UNL1       -0.3488
     20 C          66.1868   93.9965   12.5488 C.3     1  UNL1        0.1716
     21 C          66.8827   93.6946   11.2548 C.ar    1  UNL1        0.0413
     22 C          67.3922   92.3103   10.9823 C.ar    1  UNL1        0.0012
     23 C          68.0881   92.0084    9.6882 C.ar    1  UNL1       -0.0000
     24 C          68.2744   93.0908    8.6666 C.ar    1  UNL1        0.0031
     25 C          67.7649   94.4750    8.9390 C.ar    1  UNL1        0.0367
     26 C          67.0690   94.7770   10.2330 C.ar    1  UNL1        0.1370
     27 O          66.5595   96.1612   10.5055 O.3     1  UNL1       -0.4717
     28 C          65.1803   96.5530   10.0647 C.3     1  UNL1        0.2525
     29 C          63.3025   86.1609    8.8520 C.3     1  UNL1        0.2267
     30 O          63.8056   84.7502    8.7702 O.3     1  UNL1       -0.4736
     31 N          62.8886   83.8459   13.8042 N.am    1  UNL1       -0.2587
     32 C          62.6114   82.8847   14.9219 C.2     1  UNL1        0.2297
     33 O          62.4302   83.3937   16.3212 O.2     1  UNL1       -0.2745
     34 C          62.5153   81.4146   14.6403 C.3     1  UNL1        0.0903
     35 C          62.6965   80.9055   13.2410 C.3     1  UNL1        0.0372
     36 C          62.9738   81.8667   12.1233 C.ar    1  UNL1       -0.0078
     37 C          63.1550   81.3577   10.7240 C.ar    1  UNL1        0.0001
     38 C          63.4323   82.3188    9.6063 C.ar    1  UNL1        0.0367
     39 C          63.5284   83.7891    9.8879 C.ar    1  UNL1        0.1399
     40 C          63.3471   84.2981   11.2872 C.ar    1  UNL1        0.0515
     41 C          63.0699   83.3368   12.4049 C.ar    1  UNL1        0.0528
     42 C          62.9847   85.3161   14.0858 C.3     1  UNL1        0.1008
     43 C          64.2787   85.9052   14.5638 C.3     1  UNL1        0.0539
     44 C          64.2943   87.2623   15.2026 C.3     1  UNL1        0.1440
     45 C          63.1531   89.0567   16.6951 C.3     1  UNL1        0.1741
     46 O          63.1859   87.6684   16.1281 O.3     1  UNL1       -0.3510
@<TRIPOS>BOND
     1    45    46    1
     2    46    44    1
     3    44    43    1
     4    43    42    1
     5    42    31    1
     6    31    32   am
     7    32    33    2
     8    32    34    1
     9    34    35    1
    10    35    36    1
    11    36    37   ar
    12    37    38   ar
    13    38    39   ar
    14    39    30    1
    15    30    29    1
    16     1    29    1
    17     1     2    1
    18     2     3    1
    19     3     4    1
    20     4     5    1
    21     5     6    2
    22     5     7   am
    23     7     9    1
    24     9    10   ar
    25    10    11   ar
    26    11    12   ar
    27    12    15    1
    28    15    16    1
    29    16    17    1
    30    17    18    1
    31    18    19    1
    32    19    20    1
    33    20    21    1
    34    21    22   ar
    35    22    23   ar
    36    23    24   ar
    37    24    25   ar
    38    25    26   ar
    39    26    27    1
    40    27    28    1
    41    12    13   ar
    42    13    14   ar
    43    39    40   ar
    44    40    41   ar
    45    41    31    1
    46    41    36   ar
    47     7     1    1
    48    14     9   ar
    49    26    21   ar
    50     3     8    1
@<TRIPOS>MOLECULE
*****
 46 50 0 0 0
SMALL
GASTEIGER

@<TRIPOS>ATOM
      1 C          64.1238   89.7941   13.5166 C.3     1  UNL1        0.1390
      2 C          65.2238   90.4234   14.3191 C.3     1  UNL1        0.0932
      3 N          65.8874   91.6761   13.8289 N.3     1  UNL1       -0.2883
      4 C          65.4511   92.2995   12.5363 C.3     1  UNL1        0.1555
      5 C          64.3511   91.6703   11.7338 C.2     1  UNL1        0.2456
      6 O          63.9148   92.2937   10.4412 O.2     1  UNL1       -0.2730
      7 N          63.6875   90.4176   12.2239 N.am    1  UNL1       -0.2541
      8 H          66.8808   91.4651   13.7335 H       1  UNL1        0.1237
      9 C          62.5874   89.7882   11.4214 C.ar    1  UNL1        0.0542
     10 C          61.1913   90.3295   11.5089 C.ar    1  UNL1        0.0180
     11 C          60.0913   89.7003   10.7065 C.ar    1  UNL1        0.0382
     12 C          60.3874   88.5296    9.8165 C.ar    1  UNL1        0.1386
     13 C          61.7836   87.9883    9.7290 C.ar    1  UNL1        0.0382
     14 C          62.8836   88.6177   10.5315 C.ar    1  UNL1        0.0180
     15 O          59.2874   87.9004    9.0140 O.3     1  UNL1       -0.4754
     16 C          59.2040   88.1431    7.5361 C.3     1  UNL1        0.2080
     17 C          59.6737   89.4470    6.9625 C.3     1  UNL1        0.0794
     18 C          58.8919   90.1095    5.8671 C.3     1  UNL1        0.1465
     19 O          59.1034   91.5643    5.5690 O.3     1  UNL1       -0.3488
     20 C          59.2475   92.0257    4.1490 C.3     1  UNL1        0.1716
     21 C          60.6084   92.1193    3.5253 C.ar    1  UNL1        0.0413
     22 C          61.7265   91.2570    4.0316 C.ar    1  UNL1        0.0012
     23 C          63.0875   91.3507    3.4078 C.ar    1  UNL1       -0.0000
     24 C          63.3303   92.3066    2.2777 C.ar    1  UNL1        0.0031
     25 C          62.2123   93.1689    1.7714 C.ar    1  UNL1        0.0367
     26 C          60.8514   93.0753    2.3951 C.ar    1  UNL1        0.1370
     27 O          59.7333   93.9376    1.8888 O.3     1  UNL1       -0.4717
     28 C          59.0586   93.6053    0.5910 C.3     1  UNL1        0.2525
     29 C          63.4601   88.5413   14.0067 C.3     1  UNL1        0.2267
     30 O          64.2933   87.3758   14.4510 O.3     1  UNL1       -0.4736
     31 N          63.5099   82.7987   12.1193 N.am    1  UNL1       -0.2587
     32 C          62.9229   81.4184   12.1311 C.2     1  UNL1        0.2297
     33 O          63.1182   80.5102   10.9534 O.2     1  UNL1       -0.2745
     34 C          62.1405   80.9464   13.3206 C.3     1  UNL1        0.0903
     35 C          61.9452   81.8546   14.4984 C.3     1  UNL1        0.0372
     36 C          62.5322   83.2349   14.4865 C.ar    1  UNL1       -0.0078
     37 C          62.3369   84.1431   15.6642 C.ar    1  UNL1        0.0001
     38 C          62.9239   85.5234   15.6524 C.ar    1  UNL1        0.0367
     39 C          63.7063   85.9955   14.4628 C.ar    1  UNL1        0.1399
     40 C          63.9016   85.0873   13.2851 C.ar    1  UNL1        0.0515
     41 C          63.3145   83.7069   13.2970 C.ar    1  UNL1        0.0528
     42 C          64.2923   83.2709   10.9297 C.3     1  UNL1        0.1008
     43 C          63.6020   83.4864    9.6155 C.3     1  UNL1        0.0539
     44 C          63.1519   84.8620    9.2215 C.3     1  UNL1        0.1440
     45 C          61.5650   85.2235    7.1965 C.3     1  UNL1        0.1741
     46 O          62.9491   85.1989    7.7739 O.3     1  UNL1       -0.3510
@<TRIPOS>BOND
     1    45    46    1
     2    46    44    1
     3    44    43    1
     4    43    42    1
     5    42    31    1
     6    31    32   am
     7    32    33    2
     8    32    34    1
     9    34    35    1
    10    35    36    1
    11    36    37   ar
    12    37    38   ar
    13    38    39   ar
    14    39    30    1
    15    30    29    1
    16     1    29    1
    17     1     2    1
    18     2     3    1
    19     3     4    1
    20     4     5    1
    21     5     6    2
    22     5     7   am
    23     7     9    1
    24     9    10   ar
    25    10    11   ar
    26    11    12   ar
    27    12    15    1
    28    15    16    1
    29    16    17    1
    30    17    18    1
    31    18    19    1
    32    19    20    1
    33    20    21    1
    34    21    22   ar
    35    22    23   ar
    36    23    24   ar
    37    24    25   ar
    38    25    26   ar
    39    26    27    1
    40    27    28    1
    41    12    13   ar
    42    13    14   ar
    43    39    40   ar
    44    40    41   ar
    45    41    31    1
    46    41    36   ar
    47     7     1    1
    48    14     9   ar
    49    26    21   ar
    50     3     8    1
@<TRIPOS>MOLECULE
*****
 46 50 0 0 0
SMALL
GASTEIGER

@<TRIPOS>ATOM
      1 C          64.8882   92.1411   12.7471 C.3     1  UNL1        0.1390
      2 C          65.6711   93.0932   11.8924 C.3     1  UNL1        0.0932
      3 N          67.1169   93.3560   12.1932 N.3     1  UNL1       -0.2883
      4 C          67.7798   92.6666   13.3487 C.3     1  UNL1        0.1555
      5 C          66.9970   91.7145   14.2035 C.2     1  UNL1        0.2456
      6 O          67.6599   91.0252   15.3590 O.2     1  UNL1       -0.2730
      7 N          65.5512   91.4518   13.9026 N.am    1  UNL1       -0.2541
      8 H          67.2059   94.3586   12.3581 H       1  UNL1        0.1237
      9 C          64.7682   90.4997   14.7574 C.ar    1  UNL1        0.0542
     10 C          63.9920   91.0126   15.9340 C.ar    1  UNL1        0.0180
     11 C          63.2091   90.0606   16.7887 C.ar    1  UNL1        0.0382
     12 C          63.2023   88.5955   16.4668 C.ar    1  UNL1        0.1386
     13 C          63.9785   88.0825   15.2902 C.ar    1  UNL1        0.0382
     14 C          64.7615   89.0346   14.4355 C.ar    1  UNL1        0.0180
     15 O          62.4194   87.6434   17.3215 O.3     1  UNL1       -0.4754
     16 C          62.8922   86.2308   17.4974 C.3     1  UNL1        0.2080
     17 C          62.4379   85.1639   16.5459 C.3     1  UNL1        0.0794
     18 C          63.4334   84.4758   15.6597 C.3     1  UNL1        0.1465
     19 O          63.6850   84.9903   14.2733 O.3     1  UNL1       -0.3488
     20 C          62.7279   84.6615   13.1662 C.3     1  UNL1        0.1716
     21 C          62.9879   83.4832   12.2752 C.ar    1  UNL1        0.0413
     22 C          63.7075   83.6720   10.9728 C.ar    1  UNL1        0.0012
     23 C          63.9675   82.4935   10.0818 C.ar    1  UNL1       -0.0000
     24 C          63.5079   81.1263   10.4933 C.ar    1  UNL1        0.0031
     25 C          62.7882   80.9375   11.7958 C.ar    1  UNL1        0.0367
     26 C          62.5282   82.1158   12.6868 C.ar    1  UNL1        0.1370
     27 O          61.8086   81.9270   13.9892 O.3     1  UNL1       -0.4717
     28 C          60.8136   80.8150   14.1420 C.3     1  UNL1        0.2525
     29 C          63.4423   91.8784   12.4463 C.3     1  UNL1        0.2267
     30 O          63.0148   91.5527   11.0459 O.3     1  UNL1       -0.4736
     31 N          59.9468   88.3886    8.2933 N.am    1  UNL1       -0.2587
     32 C          59.4773   87.0048    7.9551 C.2     1  UNL1        0.2297
     33 O          58.4128   86.8067    6.9171 O.2     1  UNL1       -0.2745
     34 C          60.0723   85.8190    8.6550 C.3     1  UNL1        0.0903
     35 C          61.1368   86.0171    9.6931 C.3     1  UNL1        0.0372
     36 C          61.6063   87.4010   10.0313 C.ar    1  UNL1       -0.0078
     37 C          62.6708   87.5991   11.0694 C.ar    1  UNL1        0.0001
     38 C          63.1403   88.9830   11.4076 C.ar    1  UNL1        0.0367
     39 C          62.5453   90.1688   10.7077 C.ar    1  UNL1        0.1399
     40 C          61.4808   89.9707    9.6696 C.ar    1  UNL1        0.0515
     41 C          61.0113   88.5868    9.3314 C.ar    1  UNL1        0.0528
     42 C          59.3518   89.5745    7.5934 C.3     1  UNL1        0.1008
     43 C          59.7094   89.8595    6.1648 C.3     1  UNL1        0.0539
     44 C          58.8151   90.7234    5.3258 C.3     1  UNL1        0.1440
     45 C          59.5666   92.5657    3.6552 C.3     1  UNL1        0.1741
     46 O          59.1947   92.1475    5.0468 O.3     1  UNL1       -0.3510
@<TRIPOS>BOND
     1    45    46    1
     2    46    44    1
     3    44    43    1
     4    43    42    1
     5    42    31    1
     6    31    32   am
     7    32    33    2
     8    32    34    1
     9    34    35    1
    10    35    36    1
    11    36    37   ar
    12    37    38   ar
    13    38    39   ar
    14    39    30    1
    15    30    29    1
    16     1    29    1
    17     1     2    1
    18     2     3    1
    19     3     4    1
    20     4     5    1
    21     5     6    2
    22     5     7   am
    23     7     9    1
    24     9    10   ar
    25    10    11   ar
    26    11    12   ar
    27    12    15    1
    28    15    16    1
    29    16    17    1
    30    17    18    1
    31    18    19    1
    32    19    20    1
    33    20    21    1
    34    21    22   ar
    35    22    23   ar
    36    23    24   ar
    37    24    25   ar
    38    25    26   ar
    39    26    27    1
    40    27    28    1
    41    12    13   ar
    42    13    14   ar
    43    39    40   ar
    44    40    41   ar
    45    41    31    1
    46    41    36   ar
    47     7     1    1
    48    14     9   ar
    49    26    21   ar
    50     3     8    1
@<TRIPOS>MOLECULE
*****
 46 50 0 0 0
SMALL
GASTEIGER

@<TRIPOS>ATOM
      1 C          63.7352   82.4535   11.2611 C.3     1  UNL1        0.1390
      2 C          63.3920   81.1259   10.6532 C.3     1  UNL1        0.0932
      3 N          62.7913   80.0451   11.5022 N.3     1  UNL1       -0.2883
      4 C          62.5337   80.2919   12.9592 C.3     1  UNL1        0.1555
      5 C          62.8769   81.6195   13.5671 C.2     1  UNL1        0.2456
      6 O          62.6194   81.8663   15.0241 O.2     1  UNL1       -0.2730
      7 N          63.4777   82.7003   12.7181 N.am    1  UNL1       -0.2541
      8 H          63.4192   79.2433   11.4459 H       1  UNL1        0.1237
      9 C          63.8209   84.0280   13.3260 C.ar    1  UNL1        0.0542
     10 C          64.9565   84.1358   14.3000 C.ar    1  UNL1        0.0180
     11 C          65.2998   85.4634   14.9080 C.ar    1  UNL1        0.0382
     12 C          64.5073   86.6833   14.5419 C.ar    1  UNL1        0.1386
     13 C          63.3717   86.5756   13.5679 C.ar    1  UNL1        0.0382
     14 C          63.0285   85.2479   12.9600 C.ar    1  UNL1        0.0180
     15 O          64.8506   88.0109   15.1498 O.3     1  UNL1       -0.4754
     16 C          63.9450   89.1883   14.9405 C.3     1  UNL1        0.2080
     17 C          64.5148   90.5752   14.9019 C.3     1  UNL1        0.0794
     18 C          65.1915   91.0737   13.6594 C.3     1  UNL1        0.1465
     19 O          65.0398   92.5079   13.2467 O.3     1  UNL1       -0.3488
     20 C          66.2562   93.3474   12.9910 C.3     1  UNL1        0.1716
     21 C          66.8348   93.4285   11.6095 C.ar    1  UNL1        0.0413
     22 C          67.6029   92.2685   11.0488 C.ar    1  UNL1        0.0012
     23 C          68.1815   92.3496    9.6672 C.ar    1  UNL1       -0.0000
     24 C          67.9918   93.5906    8.8463 C.ar    1  UNL1        0.0031
     25 C          67.2237   94.7506    9.4070 C.ar    1  UNL1        0.0367
     26 C          66.6452   94.6696   10.7886 C.ar    1  UNL1        0.1370
     27 O          65.8770   95.8296   11.3493 O.3     1  UNL1       -0.4717
     28 C          65.2891   96.8560   10.4269 C.3     1  UNL1        0.2525
     29 C          64.3360   83.5344   10.4121 C.3     1  UNL1        0.2267
     30 O          63.9746   83.6353    8.9598 O.3     1  UNL1       -0.4736
     31 N          61.0304   87.8270    9.8324 N.am    1  UNL1       -0.2587
     32 C          59.9513   88.7710    9.3918 C.2     1  UNL1        0.2297
     33 O          59.5584   89.9228   10.2688 O.2     1  UNL1       -0.2745
     34 C          59.2651   88.5633    8.0743 C.3     1  UNL1        0.0903
     35 C          59.6580   87.4116    7.1973 C.3     1  UNL1        0.0372
     36 C          60.7372   86.4675    7.6379 C.ar    1  UNL1       -0.0078
     37 C          61.1301   85.3157    6.7610 C.ar    1  UNL1        0.0001
     38 C          62.2092   84.3717    7.2016 C.ar    1  UNL1        0.0367
     39 C          62.8955   84.5793    8.5192 C.ar    1  UNL1        0.1399
     40 C          62.5026   85.7311    9.3961 C.ar    1  UNL1        0.0515
     41 C          61.4234   86.6752    8.9555 C.ar    1  UNL1        0.0528
     42 C          61.7167   88.0346   11.1500 C.3     1  UNL1        0.1008
     43 C          62.7844   89.0797   11.2831 C.3     1  UNL1        0.0539
     44 C          62.4402   90.4405   11.8121 C.3     1  UNL1        0.1440
     45 C          63.9104   91.7404   10.1097 C.3     1  UNL1        0.1741
     46 O          62.6836   91.6568   10.9687 O.3     1  UNL1       -0.3510
@<TRIPOS>BOND
     1    45    46    1
     2    46    44    1
     3    44    43    1
     4    43    42    1
     5    42    31    1
     6    31    32   am
     7    32    33    2
     8    32    34    1
     9    34    35    1
    10    35    36    1
    11    36    37   ar
    12    37    38   ar
    13    38    39   ar
    14    39    30    1
    15    30    29    1
    16     1    29    1
    17     1     2    1
    18     2     3    1
    19     3     4    1
    20     4     5    1
    21     5     6    2
    22     5     7   am
    23     7     9    1
    24     9    10   ar
    25    10    11   ar
    26    11    12   ar
    27    12    15    1
    28    15    16    1
    29    16    17    1
    30    17    18    1
    31    18    19    1
    32    19    20    1
    33    20    21    1
    34    21    22   ar
    35    22    23   ar
    36    23    24   ar
    37    24    25   ar
    38    25    26   ar
    39    26    27    1
    40    27    28    1
    41    12    13   ar
    42    13    14   ar
    43    39    40   ar
    44    40    41   ar
    45    41    31    1
    46    41    36   ar
    47     7     1    1
    48    14     9   ar
    49    26    21   ar
    50     3     8    1
@<TRIPOS>MOLECULE
*****
 46 50 0 0 0
SMALL
GASTEIGER

@<TRIPOS>ATOM
      1 C          61.2648   88.8353    9.3442 C.3     1  UNL1        0.1390
      2 C          60.4936   89.9756    8.7486 C.3     1  UNL1        0.0932
      3 N          59.4398   89.7095    7.7149 N.3     1  UNL1       -0.2883
      4 C          59.1572   88.3029    7.2769 C.3     1  UNL1        0.1555
      5 C          59.9284   87.1626    7.8725 C.2     1  UNL1        0.2456
      6 O          59.6458   85.7561    7.4345 O.2     1  UNL1       -0.2730
      7 N          60.9822   87.4288    8.9062 N.am    1  UNL1       -0.2541
      8 H          59.7086   90.2296    6.8796 H       1  UNL1        0.1237
      9 C          61.7535   86.2885    9.5019 C.ar    1  UNL1        0.0542
     10 C          61.5107   85.8811   10.9249 C.ar    1  UNL1        0.0180
     11 C          62.2819   84.7408   11.5206 C.ar    1  UNL1        0.0382
     12 C          63.2960   84.0078   10.6933 C.ar    1  UNL1        0.1386
     13 C          63.5389   84.4152    9.2703 C.ar    1  UNL1        0.0382
     14 C          62.7676   85.5556    8.6746 C.ar    1  UNL1        0.0180
     15 O          64.0673   82.8676   11.2890 O.3     1  UNL1       -0.4754
     16 C          63.3389   81.6947   11.8755 C.3     1  UNL1        0.2080
     17 C          63.4686   81.3860   13.3376 C.3     1  UNL1        0.0794
     18 C          62.7521   82.2309   14.3490 C.3     1  UNL1        0.1465
     19 O          63.5348   83.0240   15.3532 O.3     1  UNL1       -0.3488
     20 C          63.9884   84.4148   15.0215 C.3     1  UNL1        0.1716
     21 C          63.5944   85.5625   15.9033 C.ar    1  UNL1        0.0413
     22 C          62.9196   85.3016   17.2172 C.ar    1  UNL1        0.0012
     23 C          62.5256   86.4494   18.0990 C.ar    1  UNL1       -0.0000
     24 C          62.8065   87.8580   17.6668 C.ar    1  UNL1        0.0031
     25 C          63.4813   88.1189   16.3528 C.ar    1  UNL1        0.0367
     26 C          63.8752   86.9712   15.4710 C.ar    1  UNL1        0.1370
     27 O          64.5500   87.2321   14.1570 O.3     1  UNL1       -0.4717
     28 C          63.7399   87.6627   12.9703 C.3     1  UNL1        0.2525
     29 C          62.3188   89.1015   10.3779 C.3     1  UNL1        0.2267
     30 O          62.7855   90.5047   10.6290 O.3     1  UNL1       -0.4736
     31 N          67.1435   92.0164   13.0212 N.am    1  UNL1       -0.2587
     32 C          67.8860   92.3455   14.2823 C.2     1  UNL1        0.2297
     33 O          69.3225   92.7723   14.2173 O.2     1  UNL1       -0.2745
     34 C          67.1919   92.2478   15.6085 C.3     1  UNL1        0.0903
     35 C          65.7554   91.8210   15.6735 C.3     1  UNL1        0.0372
     36 C          65.0129   91.4919   14.4124 C.ar    1  UNL1       -0.0078
     37 C          63.5764   91.0651   14.4775 C.ar    1  UNL1        0.0001
     38 C          62.8339   90.7361   13.2164 C.ar    1  UNL1        0.0367
     39 C          63.5280   90.8338   11.8901 C.ar    1  UNL1        0.1399
     40 C          64.9645   91.2606   11.8251 C.ar    1  UNL1        0.0515
     41 C          65.7070   91.5896   13.0863 C.ar    1  UNL1        0.0528
     42 C          67.8376   92.1141   11.6950 C.3     1  UNL1        0.1008
     43 C          67.1019   92.6460   10.5009 C.3     1  UNL1        0.0539
     44 C          67.1341   94.1137   10.1927 C.3     1  UNL1        0.1440
     45 C          65.9454   96.1693   11.2467 C.3     1  UNL1        0.1741
     46 O          67.0118   95.1159   11.3020 O.3     1  UNL1       -0.3510
@<TRIPOS>BOND
     1    45    46    1
     2    46    44    1
     3    44    43    1
     4    43    42    1
     5    42    31    1
     6    31    32   am
     7    32    33    2
     8    32    34    1
     9    34    35    1
    10    35    36    1
    11    36    37   ar
    12    37    38   ar
    13    38    39   ar
    14    39    30    1
    15    30    29    1
    16     1    29    1
    17     1     2    1
    18     2     3    1
    19     3     4    1
    20     4     5    1
    21     5     6    2
    22     5     7   am
    23     7     9    1
    24     9    10   ar
    25    10    11   ar
    26    11    12   ar
    27    12    15    1
    28    15    16    1
    29    16    17    1
    30    17    18    1
    31    18    19    1
    32    19    20    1
    33    20    21    1
    34    21    22   ar
    35    22    23   ar
    36    23    24   ar
    37    24    25   ar
    38    25    26   ar
    39    26    27    1
    40    27    28    1
    41    12    13   ar
    42    13    14   ar
    43    39    40   ar
    44    40    41   ar
    45    41    31    1
    46    41    36   ar
    47     7     1    1
    48    14     9   ar
    49    26    21   ar
    50     3     8    1
@<TRIPOS>MOLECULE
*****
 46 50 0 0 0
SMALL
GASTEIGER

@<TRIPOS>ATOM
      1 C          63.6382   82.0368   11.2842 C.3     1  UNL1        0.1390
      2 C          63.4513   80.9079   10.3144 C.3     1  UNL1        0.0932
      3 N          62.8908   79.5990   10.7862 N.3     1  UNL1       -0.2883
      4 C          62.5171   79.4191   12.2278 C.3     1  UNL1        0.1555
      5 C          62.7040   80.5481   13.1975 C.2     1  UNL1        0.2456
      6 O          62.3303   80.3682   14.6390 O.2     1  UNL1       -0.2730
      7 N          63.2645   81.8570   12.7257 N.am    1  UNL1       -0.2541
      8 H          63.5876   78.8857   10.5715 H       1  UNL1        0.1237
      9 C          63.4514   82.9860   13.6955 C.ar    1  UNL1        0.0542
     10 C          64.7413   83.7514   13.7158 C.ar    1  UNL1        0.0180
     11 C          64.9282   84.8804   14.6855 C.ar    1  UNL1        0.0382
     12 C          63.8252   85.2441   15.6349 C.ar    1  UNL1        0.1386
     13 C          62.5353   84.4788   15.6145 C.ar    1  UNL1        0.0382
     14 C          62.3484   83.3497   14.6447 C.ar    1  UNL1        0.0180
     15 O          64.0121   86.3732   16.6046 O.3     1  UNL1       -0.4754
     16 C          62.8717   87.2999   16.9055 C.3     1  UNL1        0.2080
     17 C          63.1332   88.7569   17.1477 C.3     1  UNL1        0.0794
     18 C          63.2250   89.7052   15.9891 C.3     1  UNL1        0.1465
     19 O          63.7456   91.0964   16.1980 O.3     1  UNL1       -0.3488
     20 C          64.3925   91.8334   15.0630 C.3     1  UNL1        0.1716
     21 C          65.8722   92.0793   15.0749 C.ar    1  UNL1        0.0413
     22 C          66.5766   92.3532   16.3706 C.ar    1  UNL1        0.0012
     23 C          68.0563   92.5991   16.3824 C.ar    1  UNL1       -0.0000
     24 C          68.8315   92.5712   15.0986 C.ar    1  UNL1        0.0031
     25 C          68.1271   92.2974   13.8029 C.ar    1  UNL1        0.0367
     26 C          66.6475   92.0515   13.7910 C.ar    1  UNL1        0.1370
     27 O          65.9431   91.7776   12.4953 O.3     1  UNL1       -0.4717
     28 C          65.8248   92.8592   11.4628 C.3     1  UNL1        0.2525
     29 C          64.1988   83.3458   10.8124 C.3     1  UNL1        0.2267
     30 O          64.0890   83.7313    9.3669 O.3     1  UNL1       -0.4736
     31 N          61.1122   87.8816   10.3226 N.am    1  UNL1       -0.2587
     32 C          60.0556   88.8513    9.8831 C.2     1  UNL1        0.2297
     33 O          59.6239   89.9568   10.8005 O.2     1  UNL1       -0.2745
     34 C          59.4308   88.7156    8.5263 C.3     1  UNL1        0.0903
     35 C          59.8626   87.6102    7.6089 C.3     1  UNL1        0.0372
     36 C          60.9192   86.6404    8.0484 C.ar    1  UNL1       -0.0078
     37 C          61.3510   85.5350    7.1310 C.ar    1  UNL1        0.0001
     38 C          62.4076   84.5653    7.5705 C.ar    1  UNL1        0.0367
     39 C          63.0324   84.7010    8.9274 C.ar    1  UNL1        0.1399
     40 C          62.6007   85.8064    9.8448 C.ar    1  UNL1        0.0515
     41 C          61.5440   86.7762    9.4052 C.ar    1  UNL1        0.0528
     42 C          61.7371   88.0173   11.6795 C.3     1  UNL1        0.1008
     43 C          62.9899   88.8241   11.8510 C.3     1  UNL1        0.0539
     44 C          62.9131   90.2250   12.3819 C.3     1  UNL1        0.1440
     45 C          62.9406   91.2009    9.9743 C.3     1  UNL1        0.1741
     46 O          62.6842   91.3716   11.4423 O.3     1  UNL1       -0.3510
@<TRIPOS>BOND
     1    45    46    1
     2    46    44    1
     3    44    43    1
     4    43    42    1
     5    42    31    1
     6    31    32   am
     7    32    33    2
     8    32    34    1
     9    34    35    1
    10    35    36    1
    11    36    37   ar
    12    37    38   ar
    13    38    39   ar
    14    39    30    1
    15    30    29    1
    16     1    29    1
    17     1     2    1
    18     2     3    1
    19     3     4    1
    20     4     5    1
    21     5     6    2
    22     5     7   am
    23     7     9    1
    24     9    10   ar
    25    10    11   ar
    26    11    12   ar
    27    12    15    1
    28    15    16    1
    29    16    17    1
    30    17    18    1
    31    18    19    1
    32    19    20    1
    33    20    21    1
    34    21    22   ar
    35    22    23   ar
    36    23    24   ar
    37    24    25   ar
    38    25    26   ar
    39    26    27    1
    40    27    28    1
    41    12    13   ar
    42    13    14   ar
    43    39    40   ar
    44    40    41   ar
    45    41    31    1
    46    41    36   ar
    47     7     1    1
    48    14     9   ar
    49    26    21   ar
    50     3     8    1
@<TRIPOS>MOLECULE
*****
 46 50 0 0 0
SMALL
GASTEIGER

@<TRIPOS>ATOM
      1 C          63.4750   82.3350   11.2863 C.3     1  UNL1        0.1390
      2 C          63.3182   81.2477   10.2650 C.3     1  UNL1        0.0932
      3 N          62.8772   79.8782   10.6892 N.3     1  UNL1       -0.2883
      4 C          62.5930   79.5960   12.1347 C.3     1  UNL1        0.1555
      5 C          62.7498   80.6833   13.1561 C.2     1  UNL1        0.2456
      6 O          62.4656   80.4011   14.6016 O.2     1  UNL1       -0.2730
      7 N          63.1908   82.0528   12.7319 N.am    1  UNL1       -0.2541
      8 H          63.6106   79.2304   10.4014 H       1  UNL1        0.1237
      9 C          63.3476   83.1401   13.7532 C.ar    1  UNL1        0.0542
     10 C          62.2119   83.4727   14.6750 C.ar    1  UNL1        0.0180
     11 C          62.3687   84.5600   15.6963 C.ar    1  UNL1        0.0382
     12 C          63.6612   85.3148   15.7959 C.ar    1  UNL1        0.1386
     13 C          64.7969   84.9822   14.8742 C.ar    1  UNL1        0.0382
     14 C          64.6401   83.8948   13.8528 C.ar    1  UNL1        0.0180
     15 O          63.8180   86.4021   16.8173 O.3     1  UNL1       -0.4754
     16 C          62.7942   87.4941   16.9133 C.3     1  UNL1        0.2080
     17 C          63.2234   88.9307   16.8686 C.3     1  UNL1        0.0794
     18 C          63.1860   89.6847   15.5725 C.3     1  UNL1        0.1465
     19 O          64.3672   89.6472   14.6486 O.3     1  UNL1       -0.3488
     20 C          65.2759   90.8361   14.5445 C.3     1  UNL1        0.1716
     21 C          65.4152   91.5616   13.2391 C.ar    1  UNL1        0.0413
     22 C          64.3634   91.4094   12.1805 C.ar    1  UNL1        0.0012
     23 C          64.5028   92.1349   10.8750 C.ar    1  UNL1       -0.0000
     24 C          65.6938   93.0127   10.6282 C.ar    1  UNL1        0.0031
     25 C          66.7455   93.1650   11.6868 C.ar    1  UNL1        0.0367
     26 C          66.6062   92.4395   12.9922 C.ar    1  UNL1        0.1370
     27 O          67.6580   92.5917   14.0509 O.3     1  UNL1       -0.4717
     28 C          67.6113   93.7587   14.9921 C.3     1  UNL1        0.2525
     29 C          63.9160   83.7045   10.8622 C.3     1  UNL1        0.2267
     30 O          63.9101   84.0779    9.4094 O.3     1  UNL1       -0.4736
     31 N          61.1396   88.4663    9.6670 N.am    1  UNL1       -0.2587
     32 C          60.0585   89.3538    9.1251 C.2     1  UNL1        0.2297
     33 O          59.7544   90.6605    9.7958 O.2     1  UNL1       -0.2745
     34 C          59.2816   88.9344    7.9125 C.3     1  UNL1        0.0903
     35 C          59.5858   87.6277    7.2417 C.3     1  UNL1        0.0372
     36 C          60.6668   86.7402    7.7836 C.ar    1  UNL1       -0.0078
     37 C          60.9710   85.4335    7.1129 C.ar    1  UNL1        0.0001
     38 C          62.0520   84.5461    7.6548 C.ar    1  UNL1        0.0367
     39 C          62.8290   84.9654    8.8675 C.ar    1  UNL1        0.1399
     40 C          62.5249   86.2721    9.5382 C.ar    1  UNL1        0.0515
     41 C          61.4437   87.1596    8.9963 C.ar    1  UNL1        0.0528
     42 C          61.9166   88.8856   10.8797 C.3     1  UNL1        0.1008
     43 C          61.3241   89.8661   11.8479 C.3     1  UNL1        0.0539
     44 C          60.3328   89.4018   12.8735 C.3     1  UNL1        0.1440
     45 C          57.9039   88.6351   13.3858 C.3     1  UNL1        0.1741
     46 O          59.0641   88.7293   12.4397 O.3     1  UNL1       -0.3510
@<TRIPOS>BOND
     1    45    46    1
     2    46    44    1
     3    44    43    1
     4    43    42    1
     5    42    31    1
     6    31    32   am
     7    32    33    2
     8    32    34    1
     9    34    35    1
    10    35    36    1
    11    36    37   ar
    12    37    38   ar
    13    38    39   ar
    14    39    30    1
    15    30    29    1
    16     1    29    1
    17     1     2    1
    18     2     3    1
    19     3     4    1
    20     4     5    1
    21     5     6    2
    22     5     7   am
    23     7     9    1
    24     9    10   ar
    25    10    11   ar
    26    11    12   ar
    27    12    15    1
    28    15    16    1
    29    16    17    1
    30    17    18    1
    31    18    19    1
    32    19    20    1
    33    20    21    1
    34    21    22   ar
    35    22    23   ar
    36    23    24   ar
    37    24    25   ar
    38    25    26   ar
    39    26    27    1
    40    27    28    1
    41    12    13   ar
    42    13    14   ar
    43    39    40   ar
    44    40    41   ar
    45    41    31    1
    46    41    36   ar
    47     7     1    1
    48    14     9   ar
    49    26    21   ar
    50     3     8    1
