@<TRIPOS>MOLECULE
*****
 25 28 0 0 0
SMALL
GASTEIGER

@<TRIPOS>ATOM
      1 C          63.8510   89.6977   13.5388 C.ar    1  UNL1        0.1385
      2 C          63.1535   89.3414   12.2595 C.ar    1  UNL1        0.0384
      3 C          62.8968   87.9030   11.9207 C.ar    1  UNL1        0.0203
      4 C          63.3376   86.8207   12.8612 C.ar    1  UNL1        0.0602
      5 C          64.0350   87.1770   14.1405 C.ar    1  UNL1        0.0204
      6 C          64.2917   88.6155   14.4793 C.ar    1  UNL1        0.0384
      7 C          64.3515   85.9029   14.8662 C.ar    1  UNL1        0.0234
      8 C          63.8497   84.7593   14.0354 C.ar    1  UNL1        0.1143
      9 N          63.2230   85.3265   12.7962 N.ar    1  UNL1       -0.3219
     10 C          62.6291   84.4091   11.7689 C.3     1  UNL1        0.1276
     11 C          62.6619   82.9245   11.9806 C.3     1  UNL1        0.1182
     12 N          63.2885   82.3573   13.2197 N.am    1  UNL1       -0.2712
     13 C          63.3213   80.8726   13.4315 C.3     1  UNL1        0.1153
     14 C          63.8825   83.2747   14.2472 C.2     1  UNL1        0.2650
     15 O          64.5092   82.7075   15.4864 O.2     1  UNL1       -0.2683
     16 O          64.1077   91.1362   13.8776 O.3     1  UNL1       -0.4791
     17 N          66.3247   93.7695   10.9792 N.3     1  UNL1       -0.2737
     18 C          66.6556   93.8187   12.4413 C.3     1  UNL1        0.0758
     19 C          65.9166   92.9409   13.4076 C.3     1  UNL1        0.0609
     20 C          64.8467   92.0140   12.9115 C.3     1  UNL1        0.1687
     21 C          64.5158   91.9648   11.4492 C.3     1  UNL1        0.0609
     22 C          65.2547   92.8426   10.4831 C.3     1  UNL1        0.0758
     23 C          66.8768   96.1349   10.0573 C.3     1  UNL1        0.0173
     24 C          67.0636   94.6472   10.0130 C.3     1  UNL1        0.0576
     25 C          67.9895   94.0373    9.0026 C.3     1  UNL1        0.0173
@<TRIPOS>BOND
     1    23    24    1
     2    24    25    1
     3    24    17    1
     4    17    18    1
     5    18    19    1
     6    19    20    1
     7    20    16    1
     8    16     1    1
     9     1     2   ar
    10     2     3   ar
    11     3     4   ar
    12     4     5   ar
    13     5     6   ar
    14     5     7   ar
    15     7     8   ar
    16     8     9   ar
    17     9    10    1
    18    10    11    1
    19    11    12    1
    20    12    13    1
    21    12    14   am
    22    14    15    2
    23    20    21    1
    24    21    22    1
    25    22    17    1
    26     6     1   ar
    27    14     8    1
    28     9     4   ar
@<TRIPOS>MOLECULE
*****
 25 28 0 0 0
SMALL
GASTEIGER

@<TRIPOS>ATOM
      1 C          63.8078   89.6736   13.8395 C.ar    1  UNL1        0.1385
      2 C          64.2127   89.1006   15.1652 C.ar    1  UNL1        0.0384
      3 C          64.2048   87.6153   15.3742 C.ar    1  UNL1        0.0203
      4 C          63.7920   86.7030   14.2575 C.ar    1  UNL1        0.0602
      5 C          63.3870   87.2759   12.9317 C.ar    1  UNL1        0.0204
      6 C          63.3950   88.7612   12.7227 C.ar    1  UNL1        0.0384
      7 C          63.0309   86.1364   12.0236 C.ar    1  UNL1        0.0234
      8 C          63.2157   84.8592   12.7881 C.ar    1  UNL1        0.1143
      9 N          63.6861   85.2093   14.1688 N.ar    1  UNL1       -0.3219
     10 C          63.9572   84.1228   15.1667 C.3     1  UNL1        0.1276
     11 C          63.7580   82.6862   14.7841 C.3     1  UNL1        0.1182
     12 N          63.2876   82.3361   13.4035 N.am    1  UNL1       -0.2712
     13 C          63.0883   80.8994   13.0208 C.3     1  UNL1        0.1153
     14 C          63.0165   83.4226   12.4055 C.2     1  UNL1        0.2650
     15 O          62.5461   83.0724   11.0248 O.2     1  UNL1       -0.2683
     16 O          63.8157   91.1590   13.6304 O.3     1  UNL1       -0.4791
     17 N          66.6551   92.9985   10.6632 N.3     1  UNL1       -0.2737
     18 C          65.2651   92.6261   10.2397 C.3     1  UNL1        0.0758
     19 C          64.3186   92.0129   11.2288 C.3     1  UNL1        0.0609
     20 C          64.7621   91.7722   12.6414 C.3     1  UNL1        0.1687
     21 C          66.1521   92.1446   13.0649 C.3     1  UNL1        0.0609
     22 C          67.0985   92.7578   12.0758 C.3     1  UNL1        0.0758
     23 C          67.5041   95.0729    9.3495 C.3     1  UNL1        0.0173
     24 C          67.6015   93.6117    9.6742 C.3     1  UNL1        0.0576
     25 C          68.6453   92.7637    9.0098 C.3     1  UNL1        0.0173
@<TRIPOS>BOND
     1    23    24    1
     2    24    25    1
     3    24    17    1
     4    17    18    1
     5    18    19    1
     6    19    20    1
     7    20    16    1
     8    16     1    1
     9     1     2   ar
    10     2     3   ar
    11     3     4   ar
    12     4     5   ar
    13     5     6   ar
    14     5     7   ar
    15     7     8   ar
    16     8     9   ar
    17     9    10    1
    18    10    11    1
    19    11    12    1
    20    12    13    1
    21    12    14   am
    22    14    15    2
    23    20    21    1
    24    21    22    1
    25    22    17    1
    26     6     1   ar
    27    14     8    1
    28     9     4   ar
@<TRIPOS>MOLECULE
*****
 25 28 0 0 0
SMALL
GASTEIGER

@<TRIPOS>ATOM
      1 C          62.2700   88.1175   10.5233 C.ar    1  UNL1        0.1385
      2 C          62.0851   87.1534    9.3892 C.ar    1  UNL1        0.0384
      3 C          62.2405   85.6801    9.6245 C.ar    1  UNL1        0.0203
      4 C          62.5807   85.1711   10.9938 C.ar    1  UNL1        0.0602
      5 C          62.7655   86.1352   12.1279 C.ar    1  UNL1        0.0204
      6 C          62.6101   87.6084   11.8926 C.ar    1  UNL1        0.0384
      7 C          63.0947   85.3447   13.3594 C.ar    1  UNL1        0.0234
      8 C          63.1133   83.8919   12.9865 C.ar    1  UNL1        0.1143
      9 N          62.7956   83.7845   11.5244 N.ar    1  UNL1       -0.3219
     10 C          62.7431   82.4383   10.8652 C.3     1  UNL1        0.1276
     11 C          63.0083   81.1992   11.6680 C.3     1  UNL1        0.1182
     12 N          63.3260   81.3066   13.1300 N.am    1  UNL1       -0.2712
     13 C          63.5913   80.0675   13.9329 C.3     1  UNL1        0.1153
     14 C          63.3785   82.6529   13.7893 C.2     1  UNL1        0.2650
     15 O          63.6962   82.7602   15.2514 O.2     1  UNL1       -0.2683
     16 O          62.1146   89.5908   10.2880 O.3     1  UNL1       -0.4791
     17 N          65.0532   92.4801   12.0954 N.3     1  UNL1       -0.2737
     18 C          64.3760   91.4594   12.9611 C.3     1  UNL1        0.0758
     19 C          63.3964   90.4962   12.3586 C.3     1  UNL1        0.0609
     20 C          63.0941   90.5539   10.8905 C.3     1  UNL1        0.1687
     21 C          63.7714   91.5747   10.0249 C.3     1  UNL1        0.0609
     22 C          64.7509   92.5378   10.6273 C.3     1  UNL1        0.0758
     23 C          66.3592   94.7235   11.9878 C.3     1  UNL1        0.0173
     24 C          66.0327   93.4432   12.6979 C.3     1  UNL1        0.0576
     25 C          66.6858   93.1260   14.0105 C.3     1  UNL1        0.0173
@<TRIPOS>BOND
     1    23    24    1
     2    24    25    1
     3    24    17    1
     4    17    18    1
     5    18    19    1
     6    19    20    1
     7    20    16    1
     8    16     1    1
     9     1     2   ar
    10     2     3   ar
    11     3     4   ar
    12     4     5   ar
    13     5     6   ar
    14     5     7   ar
    15     7     8   ar
    16     8     9   ar
    17     9    10    1
    18    10    11    1
    19    11    12    1
    20    12    13    1
    21    12    14   am
    22    14    15    2
    23    20    21    1
    24    21    22    1
    25    22    17    1
    26     6     1   ar
    27    14     8    1
    28     9     4   ar
@<TRIPOS>MOLECULE
*****
 25 28 0 0 0
SMALL
GASTEIGER

@<TRIPOS>ATOM
      1 C          58.8874   90.3030    5.9323 C.ar    1  UNL1        0.1385
      2 C          57.9384   91.2895    5.3190 C.ar    1  UNL1        0.0384
      3 C          58.4155   92.2208    4.2444 C.ar    1  UNL1        0.0203
      4 C          59.8417   92.1656    3.7830 C.ar    1  UNL1        0.0602
      5 C          60.7908   91.1791    4.3962 C.ar    1  UNL1        0.0204
      6 C          60.3136   90.2478    5.4709 C.ar    1  UNL1        0.0384
      7 C          62.1291   91.3553    3.7422 C.ar    1  UNL1        0.0234
      8 C          62.0073   92.4508    2.7248 C.ar    1  UNL1        0.1143
      9 N          60.5936   92.9516    2.7499 N.ar    1  UNL1       -0.3219
     10 C          60.1735   94.0585    1.8290 C.3     1  UNL1        0.1276
     11 C          61.1672   94.6647    0.8829 C.3     1  UNL1        0.1182
     12 N          62.5809   94.1639    0.8578 N.am    1  UNL1       -0.2712
     13 C          63.5746   94.7701   -0.0884 C.3     1  UNL1        0.1153
     14 C          63.0009   93.0569    1.7787 C.2     1  UNL1        0.2650
     15 O          64.4147   92.5561    1.7536 O.2     1  UNL1       -0.2683
     16 O          58.4103   89.3716    7.0070 O.3     1  UNL1       -0.4791
     17 N          61.3264   86.6358    9.0713 N.3     1  UNL1       -0.2737
     18 C          61.2627   88.0861    9.4486 C.3     1  UNL1        0.0758
     19 C          60.2906   88.9981    8.7605 C.3     1  UNL1        0.0609
     20 C          59.3823   88.4597    7.6951 C.3     1  UNL1        0.1687
     21 C          59.4461   87.0093    7.3178 C.3     1  UNL1        0.0609
     22 C          60.4181   86.0974    8.0058 C.3     1  UNL1        0.0758
     23 C          63.2373   84.8798    8.9494 C.3     1  UNL1        0.0173
     24 C          62.2984   85.7239    9.7593 C.3     1  UNL1        0.0576
     25 C          62.3316   85.6560   11.2575 C.3     1  UNL1        0.0173
@<TRIPOS>BOND
     1    23    24    1
     2    24    25    1
     3    24    17    1
     4    17    18    1
     5    18    19    1
     6    19    20    1
     7    20    16    1
     8    16     1    1
     9     1     2   ar
    10     2     3   ar
    11     3     4   ar
    12     4     5   ar
    13     5     6   ar
    14     5     7   ar
    15     7     8   ar
    16     8     9   ar
    17     9    10    1
    18    10    11    1
    19    11    12    1
    20    12    13    1
    21    12    14   am
    22    14    15    2
    23    20    21    1
    24    21    22    1
    25    22    17    1
    26     6     1   ar
    27    14     8    1
    28     9     4   ar
@<TRIPOS>MOLECULE
*****
 25 28 0 0 0
SMALL
GASTEIGER

@<TRIPOS>ATOM
      1 C          63.4868   89.6572   13.0669 C.ar    1  UNL1        0.1385
      2 C          62.8421   89.1981   11.7927 C.ar    1  UNL1        0.0384
      3 C          62.6673   87.7323   11.5265 C.ar    1  UNL1        0.0203
      4 C          63.1372   86.7257   12.5343 C.ar    1  UNL1        0.0602
      5 C          63.7819   87.1848   13.8085 C.ar    1  UNL1        0.0204
      6 C          63.9567   88.6505   14.0748 C.ar    1  UNL1        0.0384
      7 C          64.1432   85.9690   14.6094 C.ar    1  UNL1        0.0234
      8 C          63.7217   84.7585   13.8302 C.ar    1  UNL1        0.1143
      9 N          63.1000   85.2261   12.5477 N.ar    1  UNL1       -0.3219
     10 C          62.5804   84.2262   11.5579 C.3     1  UNL1        0.1276
     11 C          62.6824   82.7585   11.8504 C.3     1  UNL1        0.1182
     12 N          63.3041   82.2909   13.1329 N.am    1  UNL1       -0.2712
     13 C          63.4062   80.8232   13.4255 C.3     1  UNL1        0.1153
     14 C          63.8238   83.2910   14.1228 C.2     1  UNL1        0.2650
     15 O          64.4456   82.8233   15.4054 O.2     1  UNL1       -0.2683
     16 O          63.6616   91.1230   13.3333 O.3     1  UNL1       -0.4791
     17 N          67.6242   92.6902   14.7796 N.3     1  UNL1       -0.2737
     18 C          66.5284   92.4008   15.7621 C.3     1  UNL1        0.0758
     19 C          65.2074   91.8784   15.2800 C.3     1  UNL1        0.0609
     20 C          64.9824   91.6454   13.8154 C.3     1  UNL1        0.1687
     21 C          66.0784   91.9348   12.8328 C.3     1  UNL1        0.0609
     22 C          67.3992   92.4571   13.3149 C.3     1  UNL1        0.0758
     23 C          70.2204   92.5927   14.7726 C.3     1  UNL1        0.0173
     24 C          68.9450   93.2125   15.2617 C.3     1  UNL1        0.0576
     25 C          68.9905   94.3549   16.2328 C.3     1  UNL1        0.0173
@<TRIPOS>BOND
     1    23    24    1
     2    24    25    1
     3    24    17    1
     4    17    18    1
     5    18    19    1
     6    19    20    1
     7    20    16    1
     8    16     1    1
     9     1     2   ar
    10     2     3   ar
    11     3     4   ar
    12     4     5   ar
    13     5     6   ar
    14     5     7   ar
    15     7     8   ar
    16     8     9   ar
    17     9    10    1
    18    10    11    1
    19    11    12    1
    20    12    13    1
    21    12    14   am
    22    14    15    2
    23    20    21    1
    24    21    22    1
    25    22    17    1
    26     6     1   ar
    27    14     8    1
    28     9     4   ar
@<TRIPOS>MOLECULE
*****
 25 28 0 0 0
SMALL
GASTEIGER

@<TRIPOS>ATOM
      1 C          63.8760   88.5936   15.3421 C.ar    1  UNL1        0.1385
      2 C          63.5041   87.7547   16.5286 C.ar    1  UNL1        0.0384
      3 C          63.2280   86.2906   16.3550 C.ar    1  UNL1        0.0203
      4 C          63.3237   85.6655   14.9948 C.ar    1  UNL1        0.0602
      5 C          63.6956   86.5044   13.8083 C.ar    1  UNL1        0.0204
      6 C          63.9717   87.9684   13.9819 C.ar    1  UNL1        0.0384
      7 C          63.7114   85.6164   12.5995 C.ar    1  UNL1        0.0234
      8 C          63.3493   84.2286   13.0389 C.ar    1  UNL1        0.1143
      9 N          63.1097   84.2589   14.5193 N.ar    1  UNL1       -0.3219
     10 C          62.7277   83.0020   15.2431 C.3     1  UNL1        0.1276
     11 C          62.5852   81.7146   14.4865 C.3     1  UNL1        0.1182
     12 N          62.8248   81.6843   13.0061 N.am    1  UNL1       -0.2712
     13 C          62.6824   80.3970   12.2494 C.3     1  UNL1        0.1153
     14 C          63.2069   82.9414   12.2823 C.2     1  UNL1        0.2650
     15 O          63.4465   82.9111   10.8018 O.2     1  UNL1       -0.2683
     16 O          64.1521   90.0578   15.5157 O.3     1  UNL1       -0.4791
     17 N          66.0653   92.3974   12.1816 N.3     1  UNL1       -0.2737
     18 C          66.8532   92.0677   13.4146 C.3     1  UNL1        0.0758
     19 C          66.2155   91.2878   14.5260 C.3     1  UNL1        0.0609
     20 C          64.7898   90.8376   14.4043 C.3     1  UNL1        0.1687
     21 C          64.0019   91.1673   13.1712 C.3     1  UNL1        0.0609
     22 C          64.6396   91.9472   12.0599 C.3     1  UNL1        0.0758
     23 C          67.6001   92.4853   10.0872 C.3     1  UNL1        0.0173
     24 C          66.7030   93.1772   11.0703 C.3     1  UNL1        0.0576
     25 C          66.4436   94.6491   10.9419 C.3     1  UNL1        0.0173
@<TRIPOS>BOND
     1    23    24    1
     2    24    25    1
     3    24    17    1
     4    17    18    1
     5    18    19    1
     6    19    20    1
     7    20    16    1
     8    16     1    1
     9     1     2   ar
    10     2     3   ar
    11     3     4   ar
    12     4     5   ar
    13     5     6   ar
    14     5     7   ar
    15     7     8   ar
    16     8     9   ar
    17     9    10    1
    18    10    11    1
    19    11    12    1
    20    12    13    1
    21    12    14   am
    22    14    15    2
    23    20    21    1
    24    21    22    1
    25    22    17    1
    26     6     1   ar
    27    14     8    1
    28     9     4   ar
@<TRIPOS>MOLECULE
*****
 25 28 0 0 0
SMALL
GASTEIGER

@<TRIPOS>ATOM
      1 C          62.4995   88.9441   11.2977 C.ar    1  UNL1        0.1385
      2 C          62.6684   90.1310   10.3963 C.ar    1  UNL1        0.0384
      3 C          63.5632   91.2629   10.8063 C.ar    1  UNL1        0.0203
      4 C          64.2892   91.2078   12.1177 C.ar    1  UNL1        0.0602
      5 C          64.1203   90.0209   13.0192 C.ar    1  UNL1        0.0204
      6 C          63.2254   88.8891   12.6092 C.ar    1  UNL1        0.0384
      7 C          64.9581   90.2454   14.2430 C.ar    1  UNL1        0.0234
      8 C          65.6448   91.5711   14.0979 C.ar    1  UNL1        0.1143
      9 N          65.2314   92.1659   12.7844 N.ar    1  UNL1       -0.3219
     10 C          65.7663   93.5030   12.3651 C.3     1  UNL1        0.1276
     11 C          66.7146   94.2454   13.2593 C.3     1  UNL1        0.1182
     12 N          67.1280   93.6505   14.5728 N.am    1  UNL1       -0.2712
     13 C          68.0764   94.3929   15.4670 C.3     1  UNL1        0.1153
     14 C          66.5931   92.3133   14.9921 C.2     1  UNL1        0.2650
     15 O          67.0065   91.7185   16.3056 O.2     1  UNL1       -0.2683
     16 O          61.6046   87.8122   10.8878 O.3     1  UNL1       -0.4791
     17 N          62.9863   83.5584   11.3834 N.3     1  UNL1       -0.2737
     18 C          62.5594   84.3527   12.5820 C.3     1  UNL1        0.0758
     19 C          62.0987   85.7707   12.4168 C.3     1  UNL1        0.0609
     20 C          62.0651   86.3943   11.0530 C.3     1  UNL1        0.1687
     21 C          62.4921   85.5999    9.8544 C.3     1  UNL1        0.0609
     22 C          62.9527   84.1820   10.0196 C.3     1  UNL1        0.0758
     23 C          64.0084   81.6825   12.8620 C.3     1  UNL1        0.0173
     24 C          63.4469   82.1405   11.5486 C.3     1  UNL1        0.0576
     25 C          63.3460   81.1805   10.4005 C.3     1  UNL1        0.0173
@<TRIPOS>BOND
     1    23    24    1
     2    24    25    1
     3    24    17    1
     4    17    18    1
     5    18    19    1
     6    19    20    1
     7    20    16    1
     8    16     1    1
     9     1     2   ar
    10     2     3   ar
    11     3     4   ar
    12     4     5   ar
    13     5     6   ar
    14     5     7   ar
    15     7     8   ar
    16     8     9   ar
    17     9    10    1
    18    10    11    1
    19    11    12    1
    20    12    13    1
    21    12    14   am
    22    14    15    2
    23    20    21    1
    24    21    22    1
    25    22    17    1
    26     6     1   ar
    27    14     8    1
    28     9     4   ar
@<TRIPOS>MOLECULE
*****
 25 28 0 0 0
SMALL
GASTEIGER

@<TRIPOS>ATOM
      1 C          59.3366   89.1199    7.3557 C.ar    1  UNL1        0.1385
      2 C          59.2325   87.6345    7.1757 C.ar    1  UNL1        0.0384
      3 C          59.9436   86.7127    8.1215 C.ar    1  UNL1        0.0203
      4 C          60.7588   87.2764    9.2474 C.ar    1  UNL1        0.0602
      5 C          60.8629   88.7619    9.4274 C.ar    1  UNL1        0.0204
      6 C          60.1518   89.6837    8.4816 C.ar    1  UNL1        0.0384
      7 C          61.7332   89.0243   10.6206 C.ar    1  UNL1        0.0234
      8 C          62.1670   87.7010   11.1780 C.ar    1  UNL1        0.1143
      9 N          61.5648   86.6207   10.3293 N.ar    1  UNL1       -0.3219
     10 C          61.8280   85.1796   10.6513 C.3     1  UNL1        0.1276
     11 C          62.6936   84.8187   11.8221 C.3     1  UNL1        0.1182
     12 N          63.2958   85.8990   12.6708 N.am    1  UNL1       -0.2712
     13 C          64.1614   85.5381   13.8416 C.3     1  UNL1        0.1153
     14 C          63.0325   87.3402   12.3487 C.2     1  UNL1        0.2650
     15 O          63.6347   88.4205   13.1975 O.2     1  UNL1       -0.2683
     16 O          58.6255   90.0418    6.4098 O.3     1  UNL1       -0.4791
     17 N          60.9586   92.3244    3.3121 N.3     1  UNL1       -0.2737
     18 C          59.4997   92.6093    3.5126 C.3     1  UNL1        0.0758
     19 C          58.7219   91.8484    4.5452 C.3     1  UNL1        0.0609
     20 C          59.4032   90.8026    5.3773 C.3     1  UNL1        0.1687
     21 C          60.8622   90.5178    5.1767 C.3     1  UNL1        0.0609
     22 C          61.6399   91.2786    4.1441 C.3     1  UNL1        0.0758
     23 C          63.1651   92.7240    1.9999 C.3     1  UNL1        0.0173
     24 C          61.7363   93.0852    2.2795 C.3     1  UNL1        0.0576
     25 C          61.0853   94.2074    1.5265 C.3     1  UNL1        0.0173
@<TRIPOS>BOND
     1    23    24    1
     2    24    25    1
     3    24    17    1
     4    17    18    1
     5    18    19    1
     6    19    20    1
     7    20    16    1
     8    16     1    1
     9     1     2   ar
    10     2     3   ar
    11     3     4   ar
    12     4     5   ar
    13     5     6   ar
    14     5     7   ar
    15     7     8   ar
    16     8     9   ar
    17     9    10    1
    18    10    11    1
    19    11    12    1
    20    12    13    1
    21    12    14   am
    22    14    15    2
    23    20    21    1
    24    21    22    1
    25    22    17    1
    26     6     1   ar
    27    14     8    1
    28     9     4   ar
@<TRIPOS>MOLECULE
*****
 25 28 0 0 0
SMALL
GASTEIGER

@<TRIPOS>ATOM
      1 C          62.1246   88.9149   11.5401 C.ar    1  UNL1        0.1385
      2 C          62.3167   90.0555   10.5852 C.ar    1  UNL1        0.0384
      3 C          63.2895   91.1499   10.9102 C.ar    1  UNL1        0.0203
      4 C          64.0703   91.1037   12.1901 C.ar    1  UNL1        0.0602
      5 C          63.8783   89.9631   13.1450 C.ar    1  UNL1        0.0204
      6 C          62.9054   88.8686   12.8201 C.ar    1  UNL1        0.0384
      7 C          64.7819   90.1862   14.3214 C.ar    1  UNL1        0.0234
      8 C          65.5324   91.4648   14.0934 C.ar    1  UNL1        0.1143
      9 N          65.0927   92.0319   12.7762 N.ar    1  UNL1       -0.3219
     10 C          65.6800   93.3200   12.2807 C.3     1  UNL1        0.1276
     11 C          66.7070   94.0412   13.1024 C.3     1  UNL1        0.1182
     12 N          67.1467   93.4741   14.4196 N.am    1  UNL1       -0.2712
     13 C          68.1738   94.1953   15.2413 C.3     1  UNL1        0.1153
     14 C          66.5594   92.1859   14.9151 C.2     1  UNL1        0.2650
     15 O          66.9992   91.6188   16.2324 O.2     1  UNL1       -0.2683
     16 O          61.1517   87.8203   11.2152 O.3     1  UNL1       -0.4791
     17 N          61.6739   85.3851    7.4673 N.3     1  UNL1       -0.2737
     18 C          62.7686   85.4289    8.4918 C.3     1  UNL1        0.0758
     19 C          62.5945   86.2407    9.7412 C.3     1  UNL1        0.0609
     20 C          61.3258   87.0086    9.9659 C.3     1  UNL1        0.1687
     21 C          60.2311   86.9648    8.9413 C.3     1  UNL1        0.0609
     22 C          60.4051   86.1531    7.6920 C.3     1  UNL1        0.0758
     23 C          63.1655   84.5737    5.5009 C.3     1  UNL1        0.0173
     24 C          61.8480   84.5734    6.2180 C.3     1  UNL1        0.0576
     25 C          60.7046   83.7614    5.6857 C.3     1  UNL1        0.0173
@<TRIPOS>BOND
     1    23    24    1
     2    24    25    1
     3    24    17    1
     4    17    18    1
     5    18    19    1
     6    19    20    1
     7    20    16    1
     8    16     1    1
     9     1     2   ar
    10     2     3   ar
    11     3     4   ar
    12     4     5   ar
    13     5     6   ar
    14     5     7   ar
    15     7     8   ar
    16     8     9   ar
    17     9    10    1
    18    10    11    1
    19    11    12    1
    20    12    13    1
    21    12    14   am
    22    14    15    2
    23    20    21    1
    24    21    22    1
    25    22    17    1
    26     6     1   ar
    27    14     8    1
    28     9     4   ar
