@<TRIPOS>MOLECULE
*****
 39 43 0 0 0
SMALL
GASTEIGER

@<TRIPOS>ATOM
      1 C          63.6030   90.9752   11.7678 C.3     1  UNL1        0.1184
      2 C          63.9496   91.9043   10.6424 C.3     1  UNL1        0.0505
      3 C          65.1312   92.8204   10.7630 C.3     1  UNL1        0.1134
      4 O          65.4778   93.7494    9.6376 O.3     1  UNL1       -0.3844
      5 C          65.9662   92.8073   12.0090 C.3     1  UNL1        0.0470
      6 C          65.6196   91.8782   13.1344 C.3     1  UNL1        0.0820
      7 N          64.4380   90.9622   13.0139 N.3     1  UNL1       -0.1547
      8 H          64.8427   93.6318    8.9139 H       1  UNL1        0.2103
      9 C          62.4213   90.0591   11.6473 C.3     1  UNL1        0.1526
     10 C          61.3165   91.0696   11.5569 C.3     1  UNL1        0.0452
     11 C          60.9985   89.6044   11.5099 C.3     1  UNL1        0.0452
     12 O          63.1158   88.7305   11.6957 O.3     1  UNL1       -0.4404
     13 N          62.6995   83.3674   12.2561 N.3     1  UNL1       -0.2699
     14 C          62.2522   83.6755   10.8579 C.3     1  UNL1        0.0940
     15 C          62.2444   85.0934   10.3683 C.3     1  UNL1        0.1141
     16 N          62.6840   86.2030   11.2769 N.am    1  UNL1       -0.2432
     17 C          62.6762   87.6208   10.7872 C.2     1  UNL1        0.4048
     18 O          62.2289   87.9290    9.3890 O.2     1  UNL1       -0.2262
     19 C          63.1313   85.8948   12.6751 C.3     1  UNL1        0.1141
     20 C          63.1390   84.4769   13.1647 C.3     1  UNL1        0.0940
     21 C          62.4055   82.4278   14.1350 C.3     1  UNL1        0.0186
     22 C          62.7072   81.9495   12.7458 C.3     1  UNL1        0.0726
     23 C          63.0090   81.4713   11.3565 C.3     1  UNL1        0.0186
     24 C          62.7150   80.5318   13.2355 C.3     1  UNL1        0.1516
     25 O          63.5449   80.1542   14.4266 O.3     1  UNL1       -0.3806
     26 H          64.4851   80.2566   14.2111 H       1  UNL1        0.2105
     27 C          66.4546   91.8651   14.3805 C.3     1  UNL1        0.0165
     28 C          66.6506   92.2496   15.8170 C.3     1  UNL1        0.0014
     29 C          67.7050   91.4578   15.1020 C.3     1  UNL1        0.0014
     30 S          64.0913   90.0330   14.1393 S.O2    1  UNL1        0.0633
     31 O          63.2149   91.0906   14.7423 O.2     1  UNL1       -0.1528
     32 O          64.7811   88.9072   13.8578 O.2     1  UNL1       -0.1528
     33 C          63.7446   89.1040   15.2648 C.ar    1  UNL1        0.1223
     34 C          63.9722   87.6288   15.1167 C.ar    1  UNL1        0.0208
     35 C          63.6254   86.6998   16.2423 C.ar    1  UNL1        0.0128
     36 C          63.0510   87.2459   17.5157 C.ar    1  UNL1        0.0578
     37 CL         62.7042   86.3170   18.6412 Cl      1  UNL1       -0.0822
     38 C          62.8234   88.7212   17.6637 C.ar    1  UNL1        0.0128
     39 C          63.1702   89.6502   16.5382 C.ar    1  UNL1        0.0208
@<TRIPOS>BOND
     1    21    22    1
     2    22    23    1
     3    22    24    1
     4    24    25    1
     5    22    13    1
     6    13    14    1
     7    14    15    1
     8    15    16    1
     9    16    17   am
    10    17    18    2
    11    17    12    1
    12    12     9    1
    13     1     9    1
    14     1     2    1
    15     2     3    1
    16     3     4    1
    17     3     5    1
    18     5     6    1
    19     6    27    1
    20    27    28    1
    21    28    29    1
    22     6     7    1
    23     7    30    1
    24    30    31    2
    25    30    32    2
    26    30    33    1
    27    33    34   ar
    28    34    35   ar
    29    35    36   ar
    30    36    37    1
    31    36    38   ar
    32    38    39   ar
    33     9    10    1
    34    10    11    1
    35    16    19    1
    36    19    20    1
    37    20    13    1
    38    11     9    1
    39     7     1    1
    40    39    33   ar
    41    29    27    1
    42    25    26    1
    43     4     8    1
@<TRIPOS>MOLECULE
*****
 39 43 0 0 0
SMALL
GASTEIGER

@<TRIPOS>ATOM
      1 C          60.5430   88.7430    9.6623 C.3     1  UNL1        0.1184
      2 C          59.7971   89.7142    8.7961 C.3     1  UNL1        0.0505
      3 C          59.4650   89.3532    7.3785 C.3     1  UNL1        0.1134
      4 O          58.7192   90.3244    6.5123 O.3     1  UNL1       -0.3844
      5 C          59.8789   88.0210    6.8272 C.3     1  UNL1        0.0470
      6 C          60.6247   87.0498    7.6934 C.3     1  UNL1        0.0820
      7 N          60.9568   87.4107    9.1109 N.3     1  UNL1       -0.1547
      8 H          58.5296   91.1298    7.0187 H       1  UNL1        0.2103
      9 C          60.8750   89.1039   11.0798 C.3     1  UNL1        0.1526
     10 C          59.4930   89.1981   11.6552 C.3     1  UNL1        0.0452
     11 C          60.6871   89.4541   12.5263 C.3     1  UNL1        0.0452
     12 O          62.3724   89.1350   10.9968 O.3     1  UNL1       -0.4404
     13 N          65.9008   91.8390   14.0771 N.3     1  UNL1       -0.2699
     14 C          65.6796   92.6845   12.8581 C.3     1  UNL1        0.0940
     15 C          64.7421   92.2198   11.7832 C.3     1  UNL1        0.1141
     16 N          64.0260   90.9097   11.9275 N.am    1  UNL1       -0.2432
     17 C          63.0886   90.4451   10.8526 C.2     1  UNL1        0.4048
     18 O          62.8673   91.2906    9.6334 O.2     1  UNL1       -0.2262
     19 C          64.2472   90.0643   13.1466 C.3     1  UNL1        0.1141
     20 C          65.1847   90.5290   14.2215 C.3     1  UNL1        0.0940
     21 C          67.9994   92.1128   14.2218 C.3     1  UNL1        0.0186
     22 C          66.8383   92.3036   15.1521 C.3     1  UNL1        0.0726
     23 C          65.6772   92.4945   16.0823 C.3     1  UNL1        0.0186
     24 C          67.7757   92.7682   16.2269 C.3     1  UNL1        0.1516
     25 O          68.3339   94.1599   16.1852 O.3     1  UNL1       -0.3806
     26 H          68.9136   94.2528   15.4130 H       1  UNL1        0.2105
     27 C          61.0386   85.7175    7.1422 C.3     1  UNL1        0.0165
     28 C          60.6770   84.3594    6.6181 C.3     1  UNL1        0.0014
     29 C          62.1172   84.7682    6.7115 C.3     1  UNL1        0.0014
     30 S          61.7027   86.4395    9.9772 S.O2    1  UNL1        0.0633
     31 O          62.9486   86.6838    9.1783 O.2     1  UNL1       -0.1528
     32 O          60.7773   86.0147   10.8636 O.2     1  UNL1       -0.1528
     33 C          62.4487   85.4683   10.8435 C.ar    1  UNL1        0.1223
     34 C          63.1391   84.2889   10.2253 C.ar    1  UNL1        0.0208
     35 C          63.8851   83.3177   11.0916 C.ar    1  UNL1        0.0128
     36 C          63.9406   83.5260   12.5760 C.ar    1  UNL1        0.0578
     37 CL         64.6866   82.5549   13.4423 Cl      1  UNL1       -0.0822
     38 C          63.2502   84.7055   13.1941 C.ar    1  UNL1        0.0128
     39 C          62.5041   85.6767   12.3279 C.ar    1  UNL1        0.0208
@<TRIPOS>BOND
     1    21    22    1
     2    22    23    1
     3    22    24    1
     4    24    25    1
     5    22    13    1
     6    13    14    1
     7    14    15    1
     8    15    16    1
     9    16    17   am
    10    17    18    2
    11    17    12    1
    12    12     9    1
    13     1     9    1
    14     1     2    1
    15     2     3    1
    16     3     4    1
    17     3     5    1
    18     5     6    1
    19     6    27    1
    20    27    28    1
    21    28    29    1
    22     6     7    1
    23     7    30    1
    24    30    31    2
    25    30    32    2
    26    30    33    1
    27    33    34   ar
    28    34    35   ar
    29    35    36   ar
    30    36    37    1
    31    36    38   ar
    32    38    39   ar
    33     9    10    1
    34    10    11    1
    35    16    19    1
    36    19    20    1
    37    20    13    1
    38    11     9    1
    39     7     1    1
    40    39    33   ar
    41    29    27    1
    42    25    26    1
    43     4     8    1
@<TRIPOS>MOLECULE
*****
 39 43 0 0 0
SMALL
GASTEIGER

@<TRIPOS>ATOM
      1 C          60.6300   88.8840    9.8642 C.3     1  UNL1        0.1184
      2 C          59.8956   89.8621    8.9960 C.3     1  UNL1        0.0505
      3 C          59.5525   89.4991    7.5816 C.3     1  UNL1        0.1134
      4 O          58.8180   90.4772    6.7134 O.3     1  UNL1       -0.3844
      5 C          59.9439   88.1580    7.0355 C.3     1  UNL1        0.0470
      6 C          60.6784   87.1799    7.9037 C.3     1  UNL1        0.0820
      7 N          61.0214   87.5429    9.3181 N.3     1  UNL1       -0.1547
      8 H          58.6427   91.2878    7.2164 H       1  UNL1        0.2103
      9 C          60.9731   89.2470   11.2786 C.3     1  UNL1        0.1526
     10 C          59.5958   89.4514   11.8365 C.3     1  UNL1        0.0452
     11 C          60.7965   89.6372   12.7162 C.3     1  UNL1        0.0452
     12 O          62.4696   89.1686   11.2120 O.3     1  UNL1       -0.4404
     13 N          65.6809   93.5186   11.0903 N.3     1  UNL1       -0.2699
     14 C          65.7232   93.0097   12.5006 C.3     1  UNL1        0.0940
     15 C          64.9309   91.7949   12.8836 C.3     1  UNL1        0.1141
     16 N          64.0964   91.0892   11.8563 N.am    1  UNL1       -0.2432
     17 C          63.3041   89.8744   12.2393 C.2     1  UNL1        0.4048
     18 O          63.3464   89.3654   13.6498 O.2     1  UNL1       -0.2262
     19 C          64.0541   91.5981   10.4459 C.3     1  UNL1        0.1141
     20 C          64.8464   92.8129   10.0629 C.3     1  UNL1        0.0940
     21 C          66.8758   94.0665    9.4254 C.3     1  UNL1        0.0186
     22 C          66.4731   94.7334   10.7072 C.3     1  UNL1        0.0726
     23 C          66.0705   95.4003   11.9890 C.3     1  UNL1        0.0186
     24 C          67.2654   95.9481   10.3241 C.3     1  UNL1        0.1516
     25 O          67.7232   96.1288    8.9071 O.3     1  UNL1       -0.3806
     26 H          68.3672   95.4383    8.6849 H       1  UNL1        0.2105
     27 C          61.0698   85.8388    7.3576 C.3     1  UNL1        0.0165
     28 C          62.1326   84.8644    6.9442 C.3     1  UNL1        0.0014
     29 C          60.6848   84.4903    6.8252 C.3     1  UNL1        0.0014
     30 S          61.7559   86.5648   10.1864 S.O2    1  UNL1        0.0633
     31 O          62.9982   86.7749    9.3721 O.2     1  UNL1       -0.1528
     32 O          60.8312   86.1684   11.0865 O.2     1  UNL1       -0.1528
     33 C          62.4905   85.5868   11.0546 C.ar    1  UNL1        0.1223
     34 C          62.7236   85.8977   12.5034 C.ar    1  UNL1        0.0208
     35 C          63.4582   84.9196   13.3716 C.ar    1  UNL1        0.0128
     36 C          63.9598   83.6307   12.7911 C.ar    1  UNL1        0.0578
     37 CL         64.6943   82.6526   13.6592 Cl      1  UNL1       -0.0822
     38 C          63.7267   83.3199   11.3423 C.ar    1  UNL1        0.0128
     39 C          62.9921   84.2979   10.4740 C.ar    1  UNL1        0.0208
@<TRIPOS>BOND
     1    21    22    1
     2    22    23    1
     3    22    24    1
     4    24    25    1
     5    22    13    1
     6    13    14    1
     7    14    15    1
     8    15    16    1
     9    16    17   am
    10    17    18    2
    11    17    12    1
    12    12     9    1
    13     1     9    1
    14     1     2    1
    15     2     3    1
    16     3     4    1
    17     3     5    1
    18     5     6    1
    19     6    27    1
    20    27    28    1
    21    28    29    1
    22     6     7    1
    23     7    30    1
    24    30    31    2
    25    30    32    2
    26    30    33    1
    27    33    34   ar
    28    34    35   ar
    29    35    36   ar
    30    36    37    1
    31    36    38   ar
    32    38    39   ar
    33     9    10    1
    34    10    11    1
    35    16    19    1
    36    19    20    1
    37    20    13    1
    38    11     9    1
    39     7     1    1
    40    39    33   ar
    41    29    27    1
    42    25    26    1
    43     4     8    1
@<TRIPOS>MOLECULE
*****
 39 43 0 0 0
SMALL
GASTEIGER

@<TRIPOS>ATOM
      1 C          64.1573   90.3131   15.1436 C.3     1  UNL1        0.1184
      2 C          65.0943   91.0444   16.0585 C.3     1  UNL1        0.0505
      3 C          66.0025   92.1048   15.5103 C.3     1  UNL1        0.1134
      4 O          66.9395   92.8361   16.4252 O.3     1  UNL1       -0.3844
      5 C          65.9737   92.4340   14.0471 C.3     1  UNL1        0.0470
      6 C          65.0367   91.7027   13.1322 C.3     1  UNL1        0.0820
      7 N          64.1284   90.6422   13.6804 N.3     1  UNL1       -0.1547
      8 H          66.8319   92.5046   17.3304 H       1  UNL1        0.2103
      9 C          63.2490   89.2526   15.6918 C.3     1  UNL1        0.1526
     10 C          62.1598   90.1119   16.2622 C.3     1  UNL1        0.0452
     11 C          62.0720   88.6184   16.3720 C.3     1  UNL1        0.0452
     12 O          64.0227   88.0250   15.3118 O.3     1  UNL1       -0.4404
     13 N          63.1678   83.0703   13.3194 N.3     1  UNL1       -0.2699
     14 C          62.9947   82.9568   14.8050 C.3     1  UNL1        0.0940
     15 C          63.1652   84.1672   15.6745 C.3     1  UNL1        0.1141
     16 N          63.5087   85.4909   15.0583 N.am    1  UNL1       -0.2432
     17 C          63.6792   86.7013   15.9279 C.2     1  UNL1        0.4048
     18 O          63.5061   86.5878   17.4136 O.2     1  UNL1       -0.2262
     19 C          63.6818   85.6044   13.5727 C.3     1  UNL1        0.1141
     20 C          63.5113   84.3940   12.7032 C.3     1  UNL1        0.0940
     21 C          63.7939   82.5258   11.3672 C.3     1  UNL1        0.0186
     22 C          62.9973   81.8600   12.4498 C.3     1  UNL1        0.0726
     23 C          62.2007   81.1943   13.5324 C.3     1  UNL1        0.0186
     24 C          62.8269   80.6498   11.5802 C.3     1  UNL1        0.1516
     25 O          63.1757   80.7181   10.1229 O.3     1  UNL1       -0.3806
     26 H          62.5694   81.3275    9.6736 H       1  UNL1        0.2105
     27 C          65.0078   92.0317   11.6690 C.3     1  UNL1        0.0165
     28 C          65.6722   92.6071   10.4535 C.3     1  UNL1        0.0014
     29 C          64.2931   92.0262   10.3502 C.3     1  UNL1        0.0014
     30 S          63.1914   89.9108   12.7655 S.O2    1  UNL1        0.0633
     31 O          62.2219   91.0527   12.8457 O.2     1  UNL1       -0.1528
     32 O          63.8338   88.7544   12.4962 O.2     1  UNL1       -0.1528
     33 C          62.2542   89.1795   11.8506 C.ar    1  UNL1        0.1223
     34 C          60.8843   89.7296   11.5845 C.ar    1  UNL1        0.0208
     35 C          59.9472   88.9982   10.6696 C.ar    1  UNL1        0.0128
     36 C          60.3799   87.7169   10.0209 C.ar    1  UNL1        0.0578
     37 CL         59.4428   86.9856    9.1060 Cl      1  UNL1       -0.0822
     38 C          61.7498   87.1669   10.2871 C.ar    1  UNL1        0.0128
     39 C          62.6870   87.8982   11.2020 C.ar    1  UNL1        0.0208
@<TRIPOS>BOND
     1    21    22    1
     2    22    23    1
     3    22    24    1
     4    24    25    1
     5    22    13    1
     6    13    14    1
     7    14    15    1
     8    15    16    1
     9    16    17   am
    10    17    18    2
    11    17    12    1
    12    12     9    1
    13     1     9    1
    14     1     2    1
    15     2     3    1
    16     3     4    1
    17     3     5    1
    18     5     6    1
    19     6    27    1
    20    27    28    1
    21    28    29    1
    22     6     7    1
    23     7    30    1
    24    30    31    2
    25    30    32    2
    26    30    33    1
    27    33    34   ar
    28    34    35   ar
    29    35    36   ar
    30    36    37    1
    31    36    38   ar
    32    38    39   ar
    33     9    10    1
    34    10    11    1
    35    16    19    1
    36    19    20    1
    37    20    13    1
    38    11     9    1
    39     7     1    1
    40    39    33   ar
    41    29    27    1
    42    25    26    1
    43     4     8    1
@<TRIPOS>MOLECULE
*****
 39 43 0 0 0
SMALL
GASTEIGER

@<TRIPOS>ATOM
      1 C          63.3817   90.1172   13.5232 C.3     1  UNL1        0.1184
      2 C          62.1954   89.6023   12.7632 C.3     1  UNL1        0.0505
      3 C          61.9831   90.0129   11.3362 C.3     1  UNL1        0.1134
      4 O          60.7969   89.4980   10.5762 O.3     1  UNL1       -0.3844
      5 C          62.9571   90.9385   10.6692 C.3     1  UNL1        0.0470
      6 C          64.1433   91.4533   11.4292 C.3     1  UNL1        0.0820
      7 N          64.3557   91.0427   12.8562 N.3     1  UNL1       -0.1547
      8 H          60.2731   88.9167   11.1494 H       1  UNL1        0.2103
      9 C          63.5940   89.7066   14.9502 C.3     1  UNL1        0.1526
     10 C          63.1517   90.9576   15.6498 C.3     1  UNL1        0.0452
     11 C          63.6271   89.7800   16.4481 C.3     1  UNL1        0.0452
     12 O          64.1100   88.3130   14.7463 O.3     1  UNL1       -0.4404
     13 N          63.0343   83.1172   13.6992 N.3     1  UNL1       -0.2699
     14 C          62.6534   83.3401   15.1328 C.3     1  UNL1        0.0940
     15 C          62.8271   84.6949   15.7529 C.3     1  UNL1        0.1141
     16 N          63.3817   85.8266   14.9395 N.am    1  UNL1       -0.2432
     17 C          63.5554   87.1813   15.5597 C.2     1  UNL1        0.4048
     18 O          63.1745   87.4043   16.9933 O.2     1  UNL1       -0.2262
     19 C          63.7626   85.6036   13.5059 C.3     1  UNL1        0.1141
     20 C          63.5889   84.2488   12.8858 C.3     1  UNL1        0.0940
     21 C          61.7246   81.4790   14.0167 C.3     1  UNL1        0.0186
     22 C          62.8606   81.7625   13.0790 C.3     1  UNL1        0.0726
     23 C          63.9965   82.0460   12.1414 C.3     1  UNL1        0.0186
     24 C          62.6869   80.4078   12.4589 C.3     1  UNL1        0.1516
     25 O          62.1987   79.2590   13.2908 O.3     1  UNL1       -0.3806
     26 H          62.8610   79.0446   13.9663 H       1  UNL1        0.2105
     27 C          65.1173   92.3788   10.7624 C.3     1  UNL1        0.0165
     28 C          66.4951   92.6569   10.2386 C.3     1  UNL1        0.0014
     29 C          65.4264   93.7040   10.1310 C.3     1  UNL1        0.0014
     30 S          65.5419   91.5576   13.6163 S.O2    1  UNL1        0.0633
     31 O          65.0357   92.9606   13.4560 O.2     1  UNL1       -0.1528
     32 O          66.2423   90.4447   13.9219 O.2     1  UNL1       -0.1528
     33 C          66.7281   92.0726   14.3764 C.ar    1  UNL1        0.1223
     34 C          66.5400   92.6961   15.7276 C.ar    1  UNL1        0.0208
     35 C          67.7263   93.2111   16.4877 C.ar    1  UNL1        0.0128
     36 C          69.1006   93.1025   15.8966 C.ar    1  UNL1        0.0578
     37 CL         70.2868   93.6175   16.6566 Cl      1  UNL1       -0.0822
     38 C          69.2886   92.4789   14.5454 C.ar    1  UNL1        0.0128
     39 C          68.1024   91.9639   13.7852 C.ar    1  UNL1        0.0208
@<TRIPOS>BOND
     1    21    22    1
     2    22    23    1
     3    22    24    1
     4    24    25    1
     5    22    13    1
     6    13    14    1
     7    14    15    1
     8    15    16    1
     9    16    17   am
    10    17    18    2
    11    17    12    1
    12    12     9    1
    13     1     9    1
    14     1     2    1
    15     2     3    1
    16     3     4    1
    17     3     5    1
    18     5     6    1
    19     6    27    1
    20    27    28    1
    21    28    29    1
    22     6     7    1
    23     7    30    1
    24    30    31    2
    25    30    32    2
    26    30    33    1
    27    33    34   ar
    28    34    35   ar
    29    35    36   ar
    30    36    37    1
    31    36    38   ar
    32    38    39   ar
    33     9    10    1
    34    10    11    1
    35    16    19    1
    36    19    20    1
    37    20    13    1
    38    11     9    1
    39     7     1    1
    40    39    33   ar
    41    29    27    1
    42    25    26    1
    43     4     8    1
@<TRIPOS>MOLECULE
*****
 39 43 0 0 0
SMALL
GASTEIGER

@<TRIPOS>ATOM
      1 C          62.1034   86.5276   10.5134 C.3     1  UNL1        0.1184
      2 C          62.0891   86.3225    9.0276 C.3     1  UNL1        0.0505
      3 C          62.7680   85.1264    8.4290 C.3     1  UNL1        0.1134
      4 O          62.7537   84.9213    6.9432 O.3     1  UNL1       -0.3844
      5 C          63.4612   84.1353    9.3163 C.3     1  UNL1        0.0470
      6 C          63.4755   84.3404   10.8021 C.3     1  UNL1        0.0820
      7 N          62.7966   85.5365   11.4007 N.3     1  UNL1       -0.1547
      8 H          62.2676   85.6470    6.5213 H       1  UNL1        0.2103
      9 C          61.4245   87.7237   11.1119 C.3     1  UNL1        0.1526
     10 C          60.0141   87.4725   10.6673 C.3     1  UNL1        0.0452
     11 C          60.3376   88.6884   11.4839 C.3     1  UNL1        0.0452
     12 O          62.5990   88.3905   11.7645 O.3     1  UNL1       -0.4404
     13 N          65.9186   92.1676   13.7555 N.3     1  UNL1       -0.2699
     14 C          65.4521   92.6826   12.4262 C.3     1  UNL1        0.0940
     15 C          64.5055   91.8671   11.5961 C.3     1  UNL1        0.1141
     16 N          64.0256   90.5365   12.0954 N.am    1  UNL1       -0.2432
     17 C          63.0790   89.7210   11.2653 C.2     1  UNL1        0.4048
     18 O          62.6124   90.2361    9.9360 O.2     1  UNL1       -0.2262
     19 C          64.4921   90.0215   13.4247 C.3     1  UNL1        0.1141
     20 C          65.4387   90.8371   14.2548 C.3     1  UNL1        0.0940
     21 C          66.5479   94.1933   13.7582 C.3     1  UNL1        0.0186
     22 C          66.8652   92.9831   14.5856 C.3     1  UNL1        0.0726
     23 C          67.1824   91.7728   15.4129 C.3     1  UNL1        0.0186
     24 C          67.8117   93.7986   15.4156 C.3     1  UNL1        0.1516
     25 O          69.2886   93.5506   15.3305 O.3     1  UNL1       -0.3806
     26 H          69.4886   92.6670   15.6772 H       1  UNL1        0.2105
     27 C          64.1686   83.3494   11.6894 C.3     1  UNL1        0.0165
     28 C          64.5644   81.9357   11.9974 C.3     1  UNL1        0.0014
     29 C          64.9736   83.0467   12.9184 C.3     1  UNL1        0.0014
     30 S          62.8108   85.7417   12.8865 S.O2    1  UNL1        0.0633
     31 O          61.6360   84.8193   13.0251 O.2     1  UNL1       -0.1528
     32 O          63.8398   86.5917   13.0891 O.2     1  UNL1       -0.1528
     33 C          62.8250   85.9467   14.3724 C.ar    1  UNL1        0.1223
     34 C          63.5169   87.1418   14.9580 C.ar    1  UNL1        0.0208
     35 C          63.5310   87.3468   16.4439 C.ar    1  UNL1        0.0128
     36 C          62.8532   86.3568   17.3441 C.ar    1  UNL1        0.0578
     37 CL         62.8673   86.5618   18.8299 Cl      1  UNL1       -0.0822
     38 C          62.1613   85.1618   16.7584 C.ar    1  UNL1        0.0128
     39 C          62.1471   84.9567   15.2725 C.ar    1  UNL1        0.0208
@<TRIPOS>BOND
     1    21    22    1
     2    22    23    1
     3    22    24    1
     4    24    25    1
     5    22    13    1
     6    13    14    1
     7    14    15    1
     8    15    16    1
     9    16    17   am
    10    17    18    2
    11    17    12    1
    12    12     9    1
    13     1     9    1
    14     1     2    1
    15     2     3    1
    16     3     4    1
    17     3     5    1
    18     5     6    1
    19     6    27    1
    20    27    28    1
    21    28    29    1
    22     6     7    1
    23     7    30    1
    24    30    31    2
    25    30    32    2
    26    30    33    1
    27    33    34   ar
    28    34    35   ar
    29    35    36   ar
    30    36    37    1
    31    36    38   ar
    32    38    39   ar
    33     9    10    1
    34    10    11    1
    35    16    19    1
    36    19    20    1
    37    20    13    1
    38    11     9    1
    39     7     1    1
    40    39    33   ar
    41    29    27    1
    42    25    26    1
    43     4     8    1
@<TRIPOS>MOLECULE
*****
 39 43 0 0 0
SMALL
GASTEIGER

@<TRIPOS>ATOM
      1 C          63.9752   90.8059   12.6090 C.3     1  UNL1        0.1184
      2 C          63.4713   89.7453   13.5423 C.3     1  UNL1        0.0505
      3 C          64.2279   89.4307   14.7987 C.3     1  UNL1        0.1134
      4 O          63.7240   88.3701   15.7320 O.3     1  UNL1       -0.3844
      5 C          65.4884   90.1769   15.1219 C.3     1  UNL1        0.0470
      6 C          65.9923   91.2376   14.1886 C.3     1  UNL1        0.0820
      7 N          65.2357   91.5521   12.9322 N.3     1  UNL1       -0.1547
      8 H          62.9054   87.9895   15.3772 H       1  UNL1        0.2103
      9 C          63.2186   91.1204   11.3526 C.3     1  UNL1        0.1526
     10 C          64.3621   91.4018   10.4235 C.3     1  UNL1        0.0452
     11 C          62.9504   91.4948    9.9250 C.3     1  UNL1        0.0452
     12 O          61.8123   90.9483   11.8453 O.3     1  UNL1       -0.4404
     13 N          61.3578   86.7249    8.4977 N.3     1  UNL1       -0.2699
     14 C          60.0817   87.5016    8.3631 C.3     1  UNL1        0.0940
     15 C          59.8763   88.7517    9.1664 C.3     1  UNL1        0.1141
     16 N          60.9471   89.2249   10.1042 N.am    1  UNL1       -0.2432
     17 C          60.7416   90.4750   10.9074 C.2     1  UNL1        0.4048
     18 O          59.4655   91.2518   10.7729 O.2     1  UNL1       -0.2262
     19 C          62.2232   88.4482   10.2388 C.3     1  UNL1        0.1141
     20 C          62.4285   87.1981    9.4355 C.3     1  UNL1        0.0940
     21 C          62.9709   85.3791    8.2037 C.3     1  UNL1        0.0186
     22 C          61.5632   85.4748    7.6944 C.3     1  UNL1        0.0726
     23 C          60.1556   85.5707    7.1852 C.3     1  UNL1        0.0186
     24 C          61.7687   84.2248    6.8912 C.3     1  UNL1        0.1516
     25 O          61.2606   84.1468    5.4820 O.3     1  UNL1       -0.3806
     26 H          60.2912   84.1800    5.4855 H       1  UNL1        0.2105
     27 C          67.2527   91.9838   14.5117 C.3     1  UNL1        0.0165
     28 C          67.9453   93.1409   15.1685 C.3     1  UNL1        0.0014
     29 C          68.7435   92.1190   14.4143 C.3     1  UNL1        0.0014
     30 S          65.7395   92.6128   11.9988 S.O2    1  UNL1        0.0633
     31 O          64.9998   93.6551   12.7842 O.2     1  UNL1       -0.1528
     32 O          66.4951   91.9337   11.1098 O.2     1  UNL1       -0.1528
     33 C          66.2433   93.6736   11.0655 C.ar    1  UNL1        0.1223
     34 C          65.7730   95.0899   11.2162 C.ar    1  UNL1        0.0208
     35 C          66.2769   96.1507   10.2828 C.ar    1  UNL1        0.0128
     36 C          67.2509   95.7951    9.1989 C.ar    1  UNL1        0.0578
     37 CL         67.7546   96.8558    8.2656 Cl      1  UNL1       -0.0822
     38 C          67.7210   94.3786    9.0484 C.ar    1  UNL1        0.0128
     39 C          67.2173   93.3178    9.9817 C.ar    1  UNL1        0.0208
@<TRIPOS>BOND
     1    21    22    1
     2    22    23    1
     3    22    24    1
     4    24    25    1
     5    22    13    1
     6    13    14    1
     7    14    15    1
     8    15    16    1
     9    16    17   am
    10    17    18    2
    11    17    12    1
    12    12     9    1
    13     1     9    1
    14     1     2    1
    15     2     3    1
    16     3     4    1
    17     3     5    1
    18     5     6    1
    19     6    27    1
    20    27    28    1
    21    28    29    1
    22     6     7    1
    23     7    30    1
    24    30    31    2
    25    30    32    2
    26    30    33    1
    27    33    34   ar
    28    34    35   ar
    29    35    36   ar
    30    36    37    1
    31    36    38   ar
    32    38    39   ar
    33     9    10    1
    34    10    11    1
    35    16    19    1
    36    19    20    1
    37    20    13    1
    38    11     9    1
    39     7     1    1
    40    39    33   ar
    41    29    27    1
    42    25    26    1
    43     4     8    1
@<TRIPOS>MOLECULE
*****
 39 43 0 0 0
SMALL
GASTEIGER

@<TRIPOS>ATOM
      1 C          63.9789   91.1222   12.8165 C.3     1  UNL1        0.1184
      2 C          63.4115   90.1670   13.8243 C.3     1  UNL1        0.0505
      3 C          64.0576   90.0259   15.1706 C.3     1  UNL1        0.1134
      4 O          63.4902   89.0707   16.1784 O.3     1  UNL1       -0.3844
      5 C          65.2711   90.8400   15.5092 C.3     1  UNL1        0.0470
      6 C          65.8385   91.7952   14.5015 C.3     1  UNL1        0.0820
      7 N          65.1924   91.9363   13.1551 N.3     1  UNL1       -0.1547
      8 H          62.7133   88.6279   15.8025 H       1  UNL1        0.2103
      9 C          63.3329   91.2632   11.4702 C.3     1  UNL1        0.1526
     10 C          64.5282   91.6395   10.6458 C.3     1  UNL1        0.0452
     11 C          63.1798   91.5180    9.9998 C.3     1  UNL1        0.0452
     12 O          61.9131   90.9360   11.8269 O.3     1  UNL1       -0.4404
     13 N          62.4749   85.5967   11.1742 N.3     1  UNL1       -0.2699
     14 C          61.2875   85.9941   10.3484 C.3     1  UNL1        0.0940
     15 C          60.8501   87.4283   10.3052 C.3     1  UNL1        0.1141
     16 N          61.6004   88.4650   11.0877 N.am    1  UNL1       -0.2432
     17 C          61.1630   89.8993   11.0444 C.2     1  UNL1        0.4048
     18 O          59.9754   90.2967   10.2186 O.2     1  UNL1       -0.2262
     19 C          62.7878   88.0677   11.9135 C.3     1  UNL1        0.1141
     20 C          63.2252   86.6334   11.9567 C.3     1  UNL1        0.0940
     21 C          63.2683   84.2273    9.7618 C.3     1  UNL1        0.0186
     22 C          62.9123   84.1625   11.2175 C.3     1  UNL1        0.0726
     23 C          62.5563   84.0978   12.6731 C.3     1  UNL1        0.0186
     24 C          63.3497   82.7284   11.2607 C.3     1  UNL1        0.1516
     25 O          64.5379   82.2822   10.4612 O.3     1  UNL1       -0.3806
     26 H          64.3398   82.3630    9.5151 H       1  UNL1        0.2105
     27 C          67.0519   92.6094   14.8400 C.3     1  UNL1        0.0165
     28 C          68.5432   92.7422   14.9311 C.3     1  UNL1        0.0014
     29 C          67.6623   93.8870   15.3353 C.3     1  UNL1        0.0014
     30 S          65.7598   92.8915   12.1473 S.O2    1  UNL1        0.0633
     31 O          66.7344   91.8420   11.7013 O.2     1  UNL1       -0.1528
     32 O          65.0323   94.0160   12.3172 O.2     1  UNL1       -0.1528
     33 C          66.3272   93.8467   11.1394 C.ar    1  UNL1        0.1223
     34 C          65.9976   95.3076   11.2221 C.ar    1  UNL1        0.0208
     35 C          66.5651   96.2627   10.2142 C.ar    1  UNL1        0.0128
     36 C          67.4622   95.7568    9.1236 C.ar    1  UNL1        0.0578
     37 CL         68.0296   96.7118    8.1158 Cl      1  UNL1       -0.0822
     38 C          67.7917   94.2958    9.0410 C.ar    1  UNL1        0.0128
     39 C          67.2243   93.3407   10.0489 C.ar    1  UNL1        0.0208
@<TRIPOS>BOND
     1    21    22    1
     2    22    23    1
     3    22    24    1
     4    24    25    1
     5    22    13    1
     6    13    14    1
     7    14    15    1
     8    15    16    1
     9    16    17   am
    10    17    18    2
    11    17    12    1
    12    12     9    1
    13     1     9    1
    14     1     2    1
    15     2     3    1
    16     3     4    1
    17     3     5    1
    18     5     6    1
    19     6    27    1
    20    27    28    1
    21    28    29    1
    22     6     7    1
    23     7    30    1
    24    30    31    2
    25    30    32    2
    26    30    33    1
    27    33    34   ar
    28    34    35   ar
    29    35    36   ar
    30    36    37    1
    31    36    38   ar
    32    38    39   ar
    33     9    10    1
    34    10    11    1
    35    16    19    1
    36    19    20    1
    37    20    13    1
    38    11     9    1
    39     7     1    1
    40    39    33   ar
    41    29    27    1
    42    25    26    1
    43     4     8    1
@<TRIPOS>MOLECULE
*****
 39 43 0 0 0
SMALL
GASTEIGER

@<TRIPOS>ATOM
      1 C          60.3784   88.8185   10.4468 C.3     1  UNL1        0.1184
      2 C          59.6818   89.5884    9.3643 C.3     1  UNL1        0.0505
      3 C          59.8145   89.1579    7.9335 C.3     1  UNL1        0.1134
      4 O          59.1179   89.9278    6.8510 O.3     1  UNL1       -0.3844
      5 C          60.6437   87.9574    7.5854 C.3     1  UNL1        0.0470
      6 C          61.3403   87.1874    8.6679 C.3     1  UNL1        0.0820
      7 N          61.2076   87.6179   10.0987 N.3     1  UNL1       -0.1547
      8 H          58.6292   90.6679    7.2438 H       1  UNL1        0.2103
      9 C          60.2457   89.2490   11.8776 C.3     1  UNL1        0.1526
     10 C          58.8093   88.8943   12.1242 C.3     1  UNL1        0.0452
     11 C          59.6302   89.5044   13.2215 C.3     1  UNL1        0.0452
     12 O          61.6361   89.7532   12.1279 O.3     1  UNL1       -0.4404
     13 N          66.1597   91.7846   14.2866 N.3     1  UNL1       -0.2699
     14 C          65.3012   91.3617   15.4415 C.3     1  UNL1        0.0940
     15 C          63.9556   90.7480   15.1905 C.3     1  UNL1        0.1141
     16 N          63.4687   90.5574   13.7847 N.am    1  UNL1       -0.2432
     17 C          62.1231   89.9438   13.5338 C.2     1  UNL1        0.4048
     18 O          61.2645   89.5208   14.6887 O.2     1  UNL1       -0.2262
     19 C          64.3272   90.9804   12.6297 C.3     1  UNL1        0.1141
     20 C          65.6728   91.5940   12.8807 C.3     1  UNL1        0.0940
     21 C          67.9746   91.9172   13.1964 C.3     1  UNL1        0.0186
     22 C          67.5054   92.3982   14.5375 C.3     1  UNL1        0.0726
     23 C          67.0360   92.8792   15.8785 C.3     1  UNL1        0.0186
     24 C          68.8509   93.0118   14.7883 C.3     1  UNL1        0.1516
     25 O          70.0662   92.4603   14.1034 O.3     1  UNL1       -0.3806
     26 H          70.2363   91.5601   14.4221 H       1  UNL1        0.2105
     27 C          62.1695   85.9869    8.3198 C.3     1  UNL1        0.0165
     28 C          62.5514   84.9090    7.3492 C.3     1  UNL1        0.0014
     29 C          63.2240   84.9856    8.6878 C.3     1  UNL1        0.0014
     30 S          61.9042   86.8481   11.1813 S.O2    1  UNL1        0.0633
     31 O          63.1116   87.7249   11.0279 O.2     1  UNL1       -0.1528
     32 O          61.0016   85.9147   11.5510 O.2     1  UNL1       -0.1528
     33 C          62.6008   86.0782   12.2640 C.ar    1  UNL1        0.1223
     34 C          63.4714   86.7953   13.2527 C.ar    1  UNL1        0.0208
     35 C          64.1681   86.0254   14.3354 C.ar    1  UNL1        0.0128
     36 C          63.9941   84.5385   14.4292 C.ar    1  UNL1        0.0578
     37 CL         64.6907   83.7686   15.5118 Cl      1  UNL1       -0.0822
     38 C          63.1234   83.8215   13.4403 C.ar    1  UNL1        0.0128
     39 C          62.4267   84.5913   12.3577 C.ar    1  UNL1        0.0208
@<TRIPOS>BOND
     1    21    22    1
     2    22    23    1
     3    22    24    1
     4    24    25    1
     5    22    13    1
     6    13    14    1
     7    14    15    1
     8    15    16    1
     9    16    17   am
    10    17    18    2
    11    17    12    1
    12    12     9    1
    13     1     9    1
    14     1     2    1
    15     2     3    1
    16     3     4    1
    17     3     5    1
    18     5     6    1
    19     6    27    1
    20    27    28    1
    21    28    29    1
    22     6     7    1
    23     7    30    1
    24    30    31    2
    25    30    32    2
    26    30    33    1
    27    33    34   ar
    28    34    35   ar
    29    35    36   ar
    30    36    37    1
    31    36    38   ar
    32    38    39   ar
    33     9    10    1
    34    10    11    1
    35    16    19    1
    36    19    20    1
    37    20    13    1
    38    11     9    1
    39     7     1    1
    40    39    33   ar
    41    29    27    1
    42    25    26    1
    43     4     8    1
