@<TRIPOS>MOLECULE
*****
 31 34 0 0 0
SMALL
GASTEIGER

@<TRIPOS>ATOM
      1 C          60.2489   87.9173    9.6512 C.ar    1  UNL1        0.1518
      2 C          59.8239   89.2659   10.1520 C.ar    1  UNL1        0.0396
      3 C          60.8563   90.2680   10.5760 C.ar    1  UNL1        0.0236
      4 C          62.3137   89.9216   10.4992 C.ar    1  UNL1        0.1291
      5 C          62.7387   88.5731    9.9984 C.ar    1  UNL1        0.0378
      6 C          61.7064   87.5710    9.5744 C.ar    1  UNL1        0.0804
      7 S          63.3461   90.9239   10.9232 S.O2    1  UNL1        0.0872
      8 O          63.6361   90.1073   12.1475 O.2     1  UNL1       -0.1475
      9 O          63.0562   91.7404    9.6988 O.2     1  UNL1       -0.1475
     10 N          64.3785   91.9261   11.3471 N.ar    1  UNL1       -0.1909
     11 C          64.9567   93.0127   10.4898 C.ar    1  UNL1        0.0973
     12 C          65.9495   93.7759   11.3156 C.ar    1  UNL1        0.0001
     13 C          66.7639   94.9481   10.8547 C.3     1  UNL1        0.0328
     14 C          65.9848   93.1610   12.6834 C.ar    1  UNL1        0.0341
     15 C          66.7755   93.4944   13.9136 C.ar    1  UNL1        0.0157
     16 C          66.5954   92.6845   15.1632 C.ar    1  UNL1        0.0769
     17 CL         67.3862   93.0179   16.3935 Cl      1  UNL1       -0.0806
     18 C          65.6245   91.5413   15.1827 C.ar    1  UNL1        0.1119
     19 N          64.8337   91.2079   13.9525 N.ar    1  UNL1       -0.2243
     20 C          65.0138   92.0178   12.7028 C.ar    1  UNL1        0.1635
     21 C          58.8763   86.7576    7.7747 C.3     1  UNL1        0.2525
     22 O          59.2165   86.9151    9.2272 O.3     1  UNL1       -0.4702
     23 N          62.1314   86.2225    9.0736 N.pl3   1  UNL1       -0.3316
     24 H          62.0817   86.0163    8.1122 H       1  UNL1        0.1469
     25 C          62.6320   85.1880   10.0376 C.3     1  UNL1        0.0719
     26 C          62.2423   85.2601   11.4844 C.3     1  UNL1        0.0368
     27 C          62.7430   84.2256   12.4483 C.3     1  UNL1        0.0738
     28 N          63.6334   83.1192   11.9656 N.3     1  UNL1       -0.2714
     29 C          64.1341   82.0847   12.9295 C.3     1  UNL1        0.0896
     30 C          64.0231   83.0472   10.5189 C.3     1  UNL1        0.0738
     31 C          63.5224   84.0816    9.5549 C.3     1  UNL1        0.0368
@<TRIPOS>BOND
     1    21    22    1
     2    22     1    1
     3     1     2   ar
     4     2     3   ar
     5     3     4   ar
     6     4     7    1
     7     7     8    2
     8     7     9    2
     9     7    10    1
    10    10    11   ar
    11    11    12   ar
    12    12    13    1
    13    12    14   ar
    14    14    15   ar
    15    15    16   ar
    16    16    17    1
    17    16    18   ar
    18    18    19   ar
    19    19    20   ar
    20     4     5   ar
    21     5     6   ar
    22     6    23    1
    23    23    25    1
    24    25    26    1
    25    26    27    1
    26    27    28    1
    27    28    29    1
    28    28    30    1
    29    30    31    1
    30     6     1   ar
    31    31    25    1
    32    20    10   ar
    33    20    14   ar
    34    23    24    1
@<TRIPOS>MOLECULE
*****
 31 34 0 0 0
SMALL
GASTEIGER

@<TRIPOS>ATOM
      1 C          65.0497   90.7774   14.2423 C.ar    1  UNL1        0.1518
      2 C          64.4529   89.4048   14.3405 C.ar    1  UNL1        0.0396
      3 C          63.5821   88.8846   13.2354 C.ar    1  UNL1        0.0236
      4 C          63.3081   89.7372   12.0321 C.ar    1  UNL1        0.1291
      5 C          63.9049   91.1098   11.9338 C.ar    1  UNL1        0.0378
      6 C          64.7756   91.6299   13.0388 C.ar    1  UNL1        0.0804
      7 S          62.4373   89.2170   10.9270 S.O2    1  UNL1        0.0872
      8 O          62.7979   90.4040   10.0840 O.2     1  UNL1       -0.1475
      9 O          62.0768   88.0298   11.7700 O.2     1  UNL1       -0.1475
     10 N          61.5665   88.6967    9.8220 N.ar    1  UNL1       -0.1909
     11 C          60.3154   89.3438    9.3064 C.ar    1  UNL1        0.0973
     12 C          59.7696   88.4850    8.2044 C.ar    1  UNL1        0.0001
     13 C          58.5280   88.7564    7.4077 C.3     1  UNL1        0.0328
     14 C          60.6835   87.3071    8.0388 C.ar    1  UNL1        0.0341
     15 C          60.6479   86.1323    7.1069 C.ar    1  UNL1        0.0157
     16 C          61.7228   85.0883    7.1747 C.ar    1  UNL1        0.0769
     17 CL         61.6872   83.9134    6.2427 Cl      1  UNL1       -0.0806
     18 C          62.8334   85.2192    8.1745 C.ar    1  UNL1        0.1119
     19 N          62.8690   86.3940    9.1064 N.ar    1  UNL1       -0.2243
     20 C          61.7941   87.4379    9.0386 C.ar    1  UNL1        0.1635
     21 C          67.3497   91.6582   15.0693 C.3     1  UNL1        0.2525
     22 O          65.9204   91.2976   15.3473 O.3     1  UNL1       -0.4702
     23 N          65.3724   93.0025   12.9405 N.pl3   1  UNL1       -0.3316
     24 H          65.3557   93.6036   13.7201 H       1  UNL1        0.1469
     25 C          65.9947   93.4595   11.6545 C.3     1  UNL1        0.0719
     26 C          65.6977   94.8305   11.1231 C.3     1  UNL1        0.0368
     27 C          66.3200   95.2874    9.8369 C.3     1  UNL1        0.0738
     28 N          67.2393   94.3733    9.0823 N.3     1  UNL1       -0.2714
     29 C          67.8616   94.8302    7.7962 C.3     1  UNL1        0.0896
     30 C          67.5363   93.0024    9.6137 C.3     1  UNL1        0.0738
     31 C          66.9140   92.5455   10.8998 C.3     1  UNL1        0.0368
@<TRIPOS>BOND
     1    21    22    1
     2    22     1    1
     3     1     2   ar
     4     2     3   ar
     5     3     4   ar
     6     4     7    1
     7     7     8    2
     8     7     9    2
     9     7    10    1
    10    10    11   ar
    11    11    12   ar
    12    12    13    1
    13    12    14   ar
    14    14    15   ar
    15    15    16   ar
    16    16    17    1
    17    16    18   ar
    18    18    19   ar
    19    19    20   ar
    20     4     5   ar
    21     5     6   ar
    22     6    23    1
    23    23    25    1
    24    25    26    1
    25    26    27    1
    26    27    28    1
    27    28    29    1
    28    28    30    1
    29    30    31    1
    30     6     1   ar
    31    31    25    1
    32    20    10   ar
    33    20    14   ar
    34    23    24    1
@<TRIPOS>MOLECULE
*****
 31 34 0 0 0
SMALL
GASTEIGER

@<TRIPOS>ATOM
      1 C          66.9047   92.3815   14.0454 C.ar    1  UNL1        0.1518
      2 C          65.9256   91.8830   15.0667 C.ar    1  UNL1        0.0396
      3 C          64.6524   91.2238   14.6259 C.ar    1  UNL1        0.0236
      4 C          64.3581   91.0631   13.1638 C.ar    1  UNL1        0.1291
      5 C          65.3372   91.5616   12.1426 C.ar    1  UNL1        0.0378
      6 C          66.6104   92.2208   12.5833 C.ar    1  UNL1        0.0804
      7 S          63.0848   90.4039   12.7231 S.O2    1  UNL1        0.0872
      8 O          63.0646   89.5975   13.9876 O.2     1  UNL1       -0.1475
      9 O          63.1051   91.2104   11.4585 O.2     1  UNL1       -0.1475
     10 N          61.8115   89.7448   12.2823 N.ar    1  UNL1       -0.1909
     11 C          60.4618   89.9249   12.9115 C.ar    1  UNL1        0.0973
     12 C          59.4806   89.0812   12.1530 C.ar    1  UNL1        0.0001
     13 C          58.0136   88.9603   12.4417 C.3     1  UNL1        0.0328
     14 C          60.2238   88.3798   11.0550 C.ar    1  UNL1        0.0341
     15 C          59.7749   87.4206    9.9927 C.ar    1  UNL1        0.0157
     16 C          60.7667   86.8715    9.0104 C.ar    1  UNL1        0.0769
     17 CL         60.3178   85.9123    7.9481 Cl      1  UNL1       -0.0806
     18 C          62.2073   87.2816    9.0904 C.ar    1  UNL1        0.1119
     19 N          62.6562   88.2408   10.1526 N.ar    1  UNL1       -0.2243
     20 C          61.6645   88.7899   11.1349 C.ar    1  UNL1        0.1635
     21 C          68.7229   92.7771   15.8586 C.3     1  UNL1        0.2525
     22 O          68.1779   93.0406   14.4861 O.3     1  UNL1       -0.4702
     23 N          67.5894   92.7193   11.5621 N.pl3   1  UNL1       -0.3316
     24 H          68.5089   92.3678   11.5490 H       1  UNL1        0.1469
     25 C          67.1674   93.7533   10.5608 C.3     1  UNL1        0.0719
     26 C          67.7989   93.7817    9.2004 C.3     1  UNL1        0.0368
     27 C          67.3769   94.8158    8.1990 C.3     1  UNL1        0.0738
     28 N          66.3235   95.8214    8.5581 N.3     1  UNL1       -0.2714
     29 C          65.9015   96.8555    7.5568 C.3     1  UNL1        0.0896
     30 C          65.6921   95.7931    9.9184 C.3     1  UNL1        0.0738
     31 C          66.1140   94.7590   10.9197 C.3     1  UNL1        0.0368
@<TRIPOS>BOND
     1    21    22    1
     2    22     1    1
     3     1     2   ar
     4     2     3   ar
     5     3     4   ar
     6     4     7    1
     7     7     8    2
     8     7     9    2
     9     7    10    1
    10    10    11   ar
    11    11    12   ar
    12    12    13    1
    13    12    14   ar
    14    14    15   ar
    15    15    16   ar
    16    16    17    1
    17    16    18   ar
    18    18    19   ar
    19    19    20   ar
    20     4     5   ar
    21     5     6   ar
    22     6    23    1
    23    23    25    1
    24    25    26    1
    25    26    27    1
    26    27    28    1
    27    28    29    1
    28    28    30    1
    29    30    31    1
    30     6     1   ar
    31    31    25    1
    32    20    10   ar
    33    20    14   ar
    34    23    24    1
@<TRIPOS>MOLECULE
*****
 31 34 0 0 0
SMALL
GASTEIGER

@<TRIPOS>ATOM
      1 C          66.0550   92.7541   14.8845 C.ar    1  UNL1        0.1518
      2 C          65.0305   91.9449   15.6230 C.ar    1  UNL1        0.0396
      3 C          64.2029   90.9321   14.8886 C.ar    1  UNL1        0.0236
      4 C          64.3999   90.7285   13.4156 C.ar    1  UNL1        0.1291
      5 C          65.4244   91.5377   12.6770 C.ar    1  UNL1        0.0378
      6 C          66.2519   92.5505   13.4114 C.ar    1  UNL1        0.0804
      7 S          63.5723   89.7156   12.6812 S.O2    1  UNL1        0.0872
      8 O          63.5248   88.8612   13.9131 O.2     1  UNL1       -0.1475
      9 O          63.6199   90.5701   11.4493 O.2     1  UNL1       -0.1475
     10 N          62.7447   88.7028   11.9468 N.ar    1  UNL1       -0.1909
     11 C          61.6882   89.0015   10.9248 C.ar    1  UNL1        0.0973
     12 C          61.1189   87.6968   10.4518 C.ar    1  UNL1        0.0001
     13 C          60.0352   87.5269    9.4287 C.3     1  UNL1        0.0328
     14 C          61.8236   86.5918   11.1815 C.ar    1  UNL1        0.0341
     15 C          61.6802   85.0998   11.1240 C.ar    1  UNL1        0.0157
     16 C          62.5416   84.2296   11.9904 C.ar    1  UNL1        0.0769
     17 CL         62.3981   82.7376   11.9329 Cl      1  UNL1       -0.0806
     18 C          63.5464   84.8514   12.9144 C.ar    1  UNL1        0.1119
     19 N          63.6898   86.3434   12.9719 N.ar    1  UNL1       -0.2243
     20 C          62.8285   87.2136   12.1055 C.ar    1  UNL1        0.1635
     21 C          68.3284   93.4886   15.9052 C.3     1  UNL1        0.2525
     22 O          66.8825   93.7670   15.6188 O.3     1  UNL1       -0.4702
     23 N          67.2764   93.3598   12.6729 N.pl3   1  UNL1       -0.3316
     24 H          68.2231   93.3173   12.9397 H       1  UNL1        0.1469
     25 C          66.8585   94.2338   11.5277 C.3     1  UNL1        0.0719
     26 C          67.1845   93.8320   10.1196 C.3     1  UNL1        0.0368
     27 C          66.7665   94.7061    8.9744 C.3     1  UNL1        0.0738
     28 N          66.0227   95.9818    9.2373 N.3     1  UNL1       -0.2714
     29 C          65.6048   96.8559    8.0921 C.3     1  UNL1        0.0896
     30 C          65.6968   96.3836   10.6453 C.3     1  UNL1        0.0738
     31 C          66.1147   95.5096   11.7904 C.3     1  UNL1        0.0368
@<TRIPOS>BOND
     1    21    22    1
     2    22     1    1
     3     1     2   ar
     4     2     3   ar
     5     3     4   ar
     6     4     7    1
     7     7     8    2
     8     7     9    2
     9     7    10    1
    10    10    11   ar
    11    11    12   ar
    12    12    13    1
    13    12    14   ar
    14    14    15   ar
    15    15    16   ar
    16    16    17    1
    17    16    18   ar
    18    18    19   ar
    19    19    20   ar
    20     4     5   ar
    21     5     6   ar
    22     6    23    1
    23    23    25    1
    24    25    26    1
    25    26    27    1
    26    27    28    1
    27    28    29    1
    28    28    30    1
    29    30    31    1
    30     6     1   ar
    31    31    25    1
    32    20    10   ar
    33    20    14   ar
    34    23    24    1
@<TRIPOS>MOLECULE
*****
 31 34 0 0 0
SMALL
GASTEIGER

@<TRIPOS>ATOM
      1 C          60.2104   87.6723    9.5974 C.ar    1  UNL1        0.1518
      2 C          59.9305   89.1336    9.7881 C.ar    1  UNL1        0.0396
      3 C          60.9299   90.0031   10.4918 C.ar    1  UNL1        0.0236
      4 C          62.2092   89.4113   11.0048 C.ar    1  UNL1        0.1291
      5 C          62.4891   87.9500   10.8142 C.ar    1  UNL1        0.0378
      6 C          61.4898   87.0806   10.1105 C.ar    1  UNL1        0.0804
      7 S          63.2086   90.2809   11.7085 S.O2    1  UNL1        0.0872
      8 O          62.7194   89.7723   13.0320 O.2     1  UNL1       -0.1475
      9 O          63.6978   90.7895   10.3849 O.2     1  UNL1       -0.1475
     10 N          64.2080   91.1505   12.4121 N.ar    1  UNL1       -0.1909
     11 C          64.7797   90.9093   13.7777 C.ar    1  UNL1        0.0973
     12 C          65.7362   92.0237   14.0832 C.ar    1  UNL1        0.0001
     13 C          66.5333   92.1807   15.3441 C.3     1  UNL1        0.0328
     14 C          65.7555   92.9536   12.9063 C.ar    1  UNL1        0.0341
     15 C          66.5112   94.2221   12.6417 C.ar    1  UNL1        0.0157
     16 C          66.3223   94.9508   11.3444 C.ar    1  UNL1        0.0769
     17 CL         67.0780   96.2193   11.0797 Cl      1  UNL1       -0.0806
     18 C          65.3778   94.4111   10.3116 C.ar    1  UNL1        0.1119
     19 N          64.6222   93.1427   10.5762 N.ar    1  UNL1       -0.2243
     20 C          64.8110   92.4139   11.8735 C.ar    1  UNL1        0.1635
     21 C          59.2785   86.6367    7.4045 C.3     1  UNL1        0.2525
     22 O          59.2111   86.8028    8.8938 O.3     1  UNL1       -0.4702
     23 N          61.7696   85.6193    9.9199 N.pl3   1  UNL1       -0.3316
     24 H          61.4977   85.1706    9.0869 H       1  UNL1        0.1469
     25 C          62.4639   84.8417   10.9985 C.3     1  UNL1        0.0719
     26 C          63.5113   83.8301   10.6381 C.3     1  UNL1        0.0368
     27 C          64.2055   83.0525   11.7168 C.3     1  UNL1        0.0738
     28 N          63.8524   83.2865   13.1556 N.3     1  UNL1       -0.2714
     29 C          64.5466   82.5089   14.2343 C.3     1  UNL1        0.0896
     30 C          62.8050   84.2980   13.5160 C.3     1  UNL1        0.0738
     31 C          62.1108   85.0756   12.4374 C.3     1  UNL1        0.0368
@<TRIPOS>BOND
     1    21    22    1
     2    22     1    1
     3     1     2   ar
     4     2     3   ar
     5     3     4   ar
     6     4     7    1
     7     7     8    2
     8     7     9    2
     9     7    10    1
    10    10    11   ar
    11    11    12   ar
    12    12    13    1
    13    12    14   ar
    14    14    15   ar
    15    15    16   ar
    16    16    17    1
    17    16    18   ar
    18    18    19   ar
    19    19    20   ar
    20     4     5   ar
    21     5     6   ar
    22     6    23    1
    23    23    25    1
    24    25    26    1
    25    26    27    1
    26    27    28    1
    27    28    29    1
    28    28    30    1
    29    30    31    1
    30     6     1   ar
    31    31    25    1
    32    20    10   ar
    33    20    14   ar
    34    23    24    1
@<TRIPOS>MOLECULE
*****
 31 34 0 0 0
SMALL
GASTEIGER

@<TRIPOS>ATOM
      1 C          63.5761   90.0890   15.7800 C.ar    1  UNL1        0.1518
      2 C          63.5443   88.7989   16.5445 C.ar    1  UNL1        0.0396
      3 C          63.5651   87.4911   15.8101 C.ar    1  UNL1        0.0236
      4 C          63.6177   87.4735   14.3111 C.ar    1  UNL1        0.1291
      5 C          63.6496   88.7636   13.5466 C.ar    1  UNL1        0.0378
      6 C          63.6288   90.0713   14.2809 C.ar    1  UNL1        0.0804
      7 S          63.6385   86.1657   13.5768 S.O2    1  UNL1        0.0872
      8 O          62.8474   86.7800   12.4603 O.2     1  UNL1       -0.1475
      9 O          64.4296   85.5514   14.6934 O.2     1  UNL1       -0.1475
     10 N          63.6593   84.8578   12.8425 N.ar    1  UNL1       -0.1909
     11 C          64.3551   84.5882   11.5413 C.ar    1  UNL1        0.0973
     12 C          64.1138   83.1538   11.1752 C.ar    1  UNL1        0.0001
     13 C          64.6273   82.4583    9.9494 C.3     1  UNL1        0.0328
     14 C          63.2689   82.5368   12.2502 C.ar    1  UNL1        0.0341
     15 C          62.7190   81.1521   12.4238 C.ar    1  UNL1        0.0157
     16 C          61.8882   80.8206   13.6279 C.ar    1  UNL1        0.0769
     17 CL         61.3383   79.4358   13.8015 Cl      1  UNL1       -0.0806
     18 C          61.6073   81.8738   14.6583 C.ar    1  UNL1        0.1119
     19 N          62.1572   83.2585   14.4847 N.ar    1  UNL1       -0.2243
     20 C          62.9880   83.5900   13.2806 C.ar    1  UNL1        0.1635
     21 C          64.8285   92.1641   16.7156 C.3     1  UNL1        0.2525
     22 O          63.5554   91.3968   16.5142 O.3     1  UNL1       -0.4702
     23 N          63.6607   91.3614   13.5164 N.pl3   1  UNL1       -0.3316
     24 H          62.8900   91.9731   13.5506 H       1  UNL1        0.1469
     25 C          64.8668   91.7196   12.6997 C.3     1  UNL1        0.0719
     26 C          64.7218   92.0096   11.2351 C.3     1  UNL1        0.0368
     27 C          65.9280   92.3679   10.4184 C.3     1  UNL1        0.0738
     28 N          67.2790   92.4361   11.0664 N.3     1  UNL1       -0.2714
     29 C          68.4853   92.7943   10.2497 C.3     1  UNL1        0.0896
     30 C          67.4241   92.1461   12.5309 C.3     1  UNL1        0.0738
     31 C          66.2180   91.7879   13.3476 C.3     1  UNL1        0.0368
@<TRIPOS>BOND
     1    21    22    1
     2    22     1    1
     3     1     2   ar
     4     2     3   ar
     5     3     4   ar
     6     4     7    1
     7     7     8    2
     8     7     9    2
     9     7    10    1
    10    10    11   ar
    11    11    12   ar
    12    12    13    1
    13    12    14   ar
    14    14    15   ar
    15    15    16   ar
    16    16    17    1
    17    16    18   ar
    18    18    19   ar
    19    19    20   ar
    20     4     5   ar
    21     5     6   ar
    22     6    23    1
    23    23    25    1
    24    25    26    1
    25    26    27    1
    26    27    28    1
    27    28    29    1
    28    28    30    1
    29    30    31    1
    30     6     1   ar
    31    31    25    1
    32    20    10   ar
    33    20    14   ar
    34    23    24    1
@<TRIPOS>MOLECULE
*****
 31 34 0 0 0
SMALL
GASTEIGER

@<TRIPOS>ATOM
      1 C          60.4318   86.5282    8.0462 C.ar    1  UNL1        0.1518
      2 C          61.5815   85.9873    8.8435 C.ar    1  UNL1        0.0396
      3 C          62.2720   86.8589    9.8502 C.ar    1  UNL1        0.0236
      4 C          61.8129   88.2715   10.0596 C.ar    1  UNL1        0.1291
      5 C          60.6633   88.8124    9.2623 C.ar    1  UNL1        0.0378
      6 C          59.9728   87.9409    8.2556 C.ar    1  UNL1        0.0804
      7 S          62.5035   89.1431   11.0663 S.O2    1  UNL1        0.0872
      8 O          62.8757   87.9280   11.8630 O.2     1  UNL1       -0.1475
      9 O          62.1312   90.3582   10.2696 O.2     1  UNL1       -0.1475
     10 N          63.1940   90.0147   12.0730 N.ar    1  UNL1       -0.1909
     11 C          63.1483   89.8474   13.5629 C.ar    1  UNL1        0.0973
     12 C          63.9776   90.9360   14.1772 C.ar    1  UNL1        0.0001
     13 C          64.2082   91.1475   15.6442 C.3     1  UNL1        0.0328
     14 C          64.5357   91.7761   13.0669 C.ar    1  UNL1        0.0341
     15 C          65.4224   92.9860   13.0721 C.ar    1  UNL1        0.0157
     16 C          65.8247   93.6264   11.7768 C.ar    1  UNL1        0.0769
     17 CL         66.7114   94.8364   11.7819 Cl      1  UNL1       -0.0806
     18 C          65.3404   93.0570   10.4763 C.ar    1  UNL1        0.1119
     19 N          64.4538   91.8472   10.4711 N.ar    1  UNL1       -0.2243
     20 C          64.0515   91.2067   11.7664 C.ar    1  UNL1        0.1635
     21 C          60.5184   84.6143    6.2914 C.3     1  UNL1        0.2525
     22 O          59.7413   85.6567    7.0395 O.3     1  UNL1       -0.4702
     23 N          58.8231   88.4818    7.4583 N.pl3   1  UNL1       -0.3316
     24 H          57.9192   88.1132    7.5856 H       1  UNL1        0.1469
     25 C          59.0508   89.5843    6.4671 C.3     1  UNL1        0.0719
     26 C          57.8933   90.4023    5.9759 C.3     1  UNL1        0.0368
     27 C          58.1210   91.5049    4.9846 C.3     1  UNL1        0.0738
     28 N          59.5062   91.7894    4.4846 N.3     1  UNL1       -0.2714
     29 C          59.7340   92.8920    3.4933 C.3     1  UNL1        0.0896
     30 C          60.6638   90.9715    4.9757 C.3     1  UNL1        0.0738
     31 C          60.4361   89.8690    5.9669 C.3     1  UNL1        0.0368
@<TRIPOS>BOND
     1    21    22    1
     2    22     1    1
     3     1     2   ar
     4     2     3   ar
     5     3     4   ar
     6     4     7    1
     7     7     8    2
     8     7     9    2
     9     7    10    1
    10    10    11   ar
    11    11    12   ar
    12    12    13    1
    13    12    14   ar
    14    14    15   ar
    15    15    16   ar
    16    16    17    1
    17    16    18   ar
    18    18    19   ar
    19    19    20   ar
    20     4     5   ar
    21     5     6   ar
    22     6    23    1
    23    23    25    1
    24    25    26    1
    25    26    27    1
    26    27    28    1
    27    28    29    1
    28    28    30    1
    29    30    31    1
    30     6     1   ar
    31    31    25    1
    32    20    10   ar
    33    20    14   ar
    34    23    24    1
@<TRIPOS>MOLECULE
*****
 31 34 0 0 0
SMALL
GASTEIGER

@<TRIPOS>ATOM
      1 C          64.7212   91.6116   15.5520 C.ar    1  UNL1        0.1518
      2 C          63.9097   90.4657   16.0797 C.ar    1  UNL1        0.0396
      3 C          63.4134   89.4041   15.1433 C.ar    1  UNL1        0.0236
      4 C          63.7286   89.4884   13.6792 C.ar    1  UNL1        0.1291
      5 C          64.5401   90.6343   13.1515 C.ar    1  UNL1        0.0378
      6 C          65.0363   91.6958   14.0878 C.ar    1  UNL1        0.0804
      7 S          63.2323   88.4268   12.7429 S.O2    1  UNL1        0.0872
      8 O          62.8087   89.4848   11.7678 O.2     1  UNL1       -0.1475
      9 O          63.6559   87.3688   13.7182 O.2     1  UNL1       -0.1475
     10 N          62.7360   87.3651   11.8067 N.ar    1  UNL1       -0.1909
     11 C          63.1168   85.9146   11.8372 C.ar    1  UNL1        0.0973
     12 C          62.3879   85.2206   10.7249 C.ar    1  UNL1        0.0001
     13 C          62.4749   83.7612   10.3894 C.3     1  UNL1        0.0328
     14 C          61.5566   86.2422   10.0071 C.ar    1  UNL1        0.0341
     15 C          60.6316   86.1368    8.8310 C.ar    1  UNL1        0.0157
     16 C          59.9217   87.3569    8.3235 C.ar    1  UNL1        0.0769
     17 CL         58.9966   87.2515    7.1474 Cl      1  UNL1       -0.0806
     18 C          60.1368   88.6823    8.9921 C.ar    1  UNL1        0.1119
     19 N          61.0619   88.7876   10.1682 N.ar    1  UNL1       -0.2243
     20 C          61.7718   87.5676   10.6757 C.ar    1  UNL1        0.1635
     21 C          66.6755   93.0247   16.5183 C.3     1  UNL1        0.2525
     22 O          65.2175   92.6732   16.4882 O.3     1  UNL1       -0.4702
     23 N          65.8478   92.8417   13.5601 N.pl3   1  UNL1       -0.3316
     24 H          65.8917   93.6867   14.0633 H       1  UNL1        0.1469
     25 C          66.5924   92.7000   12.2657 C.3     1  UNL1        0.0719
     26 C          66.0668   93.3546   11.0225 C.3     1  UNL1        0.0368
     27 C          66.8114   93.2129    9.7281 C.3     1  UNL1        0.0738
     28 N          68.0816   92.4167    9.6769 N.3     1  UNL1       -0.2714
     29 C          68.8262   92.2750    8.3824 C.3     1  UNL1        0.0896
     30 C          68.6072   91.7621   10.9200 C.3     1  UNL1        0.0738
     31 C          67.8626   91.9038   12.2144 C.3     1  UNL1        0.0368
@<TRIPOS>BOND
     1    21    22    1
     2    22     1    1
     3     1     2   ar
     4     2     3   ar
     5     3     4   ar
     6     4     7    1
     7     7     8    2
     8     7     9    2
     9     7    10    1
    10    10    11   ar
    11    11    12   ar
    12    12    13    1
    13    12    14   ar
    14    14    15   ar
    15    15    16   ar
    16    16    17    1
    17    16    18   ar
    18    18    19   ar
    19    19    20   ar
    20     4     5   ar
    21     5     6   ar
    22     6    23    1
    23    23    25    1
    24    25    26    1
    25    26    27    1
    26    27    28    1
    27    28    29    1
    28    28    30    1
    29    30    31    1
    30     6     1   ar
    31    31    25    1
    32    20    10   ar
    33    20    14   ar
    34    23    24    1
@<TRIPOS>MOLECULE
*****
 31 34 0 0 0
SMALL
GASTEIGER

@<TRIPOS>ATOM
      1 C          64.2646   89.2560   13.8763 C.ar    1  UNL1        0.1518
      2 C          64.6458   88.2911   14.9596 C.ar    1  UNL1        0.0396
      3 C          64.2551   86.8471   14.8495 C.ar    1  UNL1        0.0236
      4 C          63.4831   86.3679   13.6561 C.ar    1  UNL1        0.1291
      5 C          63.1019   87.3327   12.5727 C.ar    1  UNL1        0.0378
      6 C          63.4926   88.7767   12.6827 C.ar    1  UNL1        0.0804
      7 S          63.0925   84.9238   13.5460 S.O2    1  UNL1        0.0872
      8 O          64.1029   84.5703   14.5966 O.2     1  UNL1       -0.1475
      9 O          62.0819   85.2773   12.4954 O.2     1  UNL1       -0.1475
     10 N          62.7017   83.4798   13.4360 N.ar    1  UNL1       -0.1909
     11 C          61.9611   82.6854   14.4706 C.ar    1  UNL1        0.0973
     12 C          61.7847   81.2913   13.9460 C.ar    1  UNL1        0.0001
     13 C          61.0974   80.1626   14.6556 C.3     1  UNL1        0.0328
     14 C          62.4162   81.2240   12.5870 C.ar    1  UNL1        0.0341
     15 C          62.5484   80.1059   11.5959 C.ar    1  UNL1        0.0157
     16 C          63.2474   80.3404   10.2897 C.ar    1  UNL1        0.0769
     17 CL         63.3796   79.2222    9.2985 Cl      1  UNL1       -0.0806
     18 C          63.8141   81.6929    9.9744 C.ar    1  UNL1        0.1119
     19 N          63.6819   82.8111   10.9655 N.ar    1  UNL1       -0.2243
     20 C          62.9830   82.5766   12.2718 C.ar    1  UNL1        0.1635
     21 C          65.9848   91.0748   14.5710 C.3     1  UNL1        0.2525
     22 O          64.6552   90.7000   13.9862 O.3     1  UNL1       -0.4702
     23 N          63.1113   89.7415   11.5994 N.pl3   1  UNL1       -0.3316
     24 H          63.5316   90.6310   11.5621 H       1  UNL1        0.1469
     25 C          62.0897   89.3511   10.5728 C.3     1  UNL1        0.0719
     26 C          60.9889   90.3034   10.2101 C.3     1  UNL1        0.0368
     27 C          59.9673   89.9129    9.1835 C.3     1  UNL1        0.0738
     28 N          60.0465   88.5702    8.5196 N.3     1  UNL1       -0.2714
     29 C          59.0249   88.1797    7.4930 C.3     1  UNL1        0.0896
     30 C          61.1473   87.6179    8.8822 C.3     1  UNL1        0.0738
     31 C          62.1689   88.0083    9.9088 C.3     1  UNL1        0.0368
@<TRIPOS>BOND
     1    21    22    1
     2    22     1    1
     3     1     2   ar
     4     2     3   ar
     5     3     4   ar
     6     4     7    1
     7     7     8    2
     8     7     9    2
     9     7    10    1
    10    10    11   ar
    11    11    12   ar
    12    12    13    1
    13    12    14   ar
    14    14    15   ar
    15    15    16   ar
    16    16    17    1
    17    16    18   ar
    18    18    19   ar
    19    19    20   ar
    20     4     5   ar
    21     5     6   ar
    22     6    23    1
    23    23    25    1
    24    25    26    1
    25    26    27    1
    26    27    28    1
    27    28    29    1
    28    28    30    1
    29    30    31    1
    30     6     1   ar
    31    31    25    1
    32    20    10   ar
    33    20    14   ar
    34    23    24    1
