@<TRIPOS>MOLECULE
*****
 23 25 0 0 0
SMALL
GASTEIGER

@<TRIPOS>ATOM
      1 C          65.6664   92.2545   11.6418 C.ar    1  UNL1        0.2035
      2 N          64.5557   91.4364   11.0525 N.ar    1  UNL1       -0.2147
      3 C          63.5463   90.7848   11.9504 C.ar    1  UNL1        0.0911
      4 C          63.6475   90.9512   13.4378 C.ar    1  UNL1        0.0801
      5 C          64.7581   91.7693   14.0271 C.ar    1  UNL1        0.2645
      6 O          64.8593   91.9357   15.5144 O.2     1  UNL1       -0.2668
      7 N          65.7676   92.4209   13.1290 N.ar    1  UNL1       -0.2667
      8 C          66.8782   93.2389   13.7183 C.3     1  UNL1        0.1363
      9 C          65.3297   95.1261   10.8414 C.3     1  UNL1        0.0241
     10 C          66.5075   94.3419   10.3435 C.3     1  UNL1        0.1027
     11 C          67.5170   94.9934    9.4455 C.3     1  UNL1        0.1334
     12 C          67.3487   96.4293    9.0453 C.3     1  UNL1        0.0338
     13 O          68.6948   94.2092    8.9477 O.3     1  UNL1       -0.3527
     14 C          68.8631   92.7734    9.3479 C.3     1  UNL1        0.1635
     15 C          67.8537   92.1219   10.2459 C.3     1  UNL1        0.1256
     16 N          66.6759   92.9061   10.7437 N.pl3   1  UNL1       -0.2761
     17 C          62.4356   89.9668   11.3611 C.ar    1  UNL1        0.0485
     18 C          61.3422   90.6367   10.5829 C.ar    1  UNL1        0.0244
     19 C          60.2316   89.8187    9.9936 C.ar    1  UNL1        0.0991
     20 N          60.2143   88.3308   10.1825 N.ar    1  UNL1       -0.2400
     21 C          61.3078   87.6608   10.9607 C.ar    1  UNL1        0.1285
     22 C          62.4185   88.4788   11.5500 C.ar    1  UNL1        0.1606
     23 F          63.5119   87.8089   12.3282 F       1  UNL1       -0.2025
@<TRIPOS>BOND
     1    10     9    1
     2    10    11    1
     3    11    12    1
     4    11    13    1
     5    13    14    1
     6    14    15    1
     7    15    16    1
     8    16     1    1
     9     1     2   ar
    10     2     3   ar
    11     3    17    1
    12    17    18   ar
    13    18    19   ar
    14    19    20   ar
    15    20    21   ar
    16    21    22   ar
    17    22    23    1
    18     3     4   ar
    19     4     5   ar
    20     5     6    2
    21     5     7   ar
    22     7     8    1
    23    16    10    1
    24     7     1   ar
    25    22    17   ar
@<TRIPOS>MOLECULE
*****
 23 25 0 0 0
SMALL
GASTEIGER

@<TRIPOS>ATOM
      1 C          62.5295   88.7291   12.0824 C.ar    1  UNL1        0.2035
      2 N          63.0610   87.3270   12.1251 N.ar    1  UNL1       -0.2147
      3 C          62.3203   86.2227   11.4310 C.ar    1  UNL1        0.0911
      4 C          61.0481   86.5204   10.6941 C.ar    1  UNL1        0.0801
      5 C          60.5166   87.9224   10.6514 C.ar    1  UNL1        0.2645
      6 O          59.2445   88.2201    9.9145 O.2     1  UNL1       -0.2668
      7 N          61.2573   89.0268   11.3456 N.ar    1  UNL1       -0.2667
      8 C          60.7258   90.4288   11.3028 C.3     1  UNL1        0.1363
      9 C          63.9046   90.8555   10.4738 C.3     1  UNL1        0.0241
     10 C          63.9577   90.8966   11.9723 C.3     1  UNL1        0.1027
     11 C          64.6984   92.0009   12.6664 C.3     1  UNL1        0.1334
     12 C          65.3859   93.0641   11.8621 C.3     1  UNL1        0.0338
     13 O          64.7515   92.0420   14.1649 O.3     1  UNL1       -0.3527
     14 C          64.0640   90.9789   14.9693 C.3     1  UNL1        0.1635
     15 C          63.3233   89.8746   14.2751 C.3     1  UNL1        0.1256
     16 N          63.2702   89.8334   12.7766 N.pl3   1  UNL1       -0.2761
     17 C          62.8518   84.8207   11.4738 C.ar    1  UNL1        0.0485
     18 C          62.7951   84.0357   12.7507 C.ar    1  UNL1        0.0244
     19 C          63.3266   82.6337   12.7934 C.ar    1  UNL1        0.0991
     20 N          63.9149   82.0166   11.5592 N.ar    1  UNL1       -0.2400
     21 C          63.9716   82.8016   10.2822 C.ar    1  UNL1        0.1285
     22 C          63.4401   84.2037   10.2395 C.ar    1  UNL1        0.1606
     23 F          63.4968   84.9887    8.9626 F       1  UNL1       -0.2025
@<TRIPOS>BOND
     1    10     9    1
     2    10    11    1
     3    11    12    1
     4    11    13    1
     5    13    14    1
     6    14    15    1
     7    15    16    1
     8    16     1    1
     9     1     2   ar
    10     2     3   ar
    11     3    17    1
    12    17    18   ar
    13    18    19   ar
    14    19    20   ar
    15    20    21   ar
    16    21    22   ar
    17    22    23    1
    18     3     4   ar
    19     4     5   ar
    20     5     6    2
    21     5     7   ar
    22     7     8    1
    23    16    10    1
    24     7     1   ar
    25    22    17   ar
@<TRIPOS>MOLECULE
*****
 23 25 0 0 0
SMALL
GASTEIGER

@<TRIPOS>ATOM
      1 C          62.7431   88.7547   11.7593 C.ar    1  UNL1        0.2035
      2 N          63.2421   87.4082   12.1928 N.ar    1  UNL1       -0.2147
      3 C          62.4730   86.1718   11.8326 C.ar    1  UNL1        0.0911
      4 C          61.2049   86.2818   11.0390 C.ar    1  UNL1        0.0801
      5 C          60.7059   87.6284   10.6056 C.ar    1  UNL1        0.2645
      6 O          59.4378   87.7385    9.8120 O.2     1  UNL1       -0.2668
      7 N          61.4750   88.8648   10.9658 N.ar    1  UNL1       -0.2667
      8 C          60.9760   90.2114   10.5323 C.3     1  UNL1        0.1363
      9 C          63.7937   89.1090   14.5469 C.3     1  UNL1        0.0241
     10 C          64.0375   90.1683   13.5133 C.3     1  UNL1        0.1027
     11 C          64.8066   91.4048   13.8734 C.3     1  UNL1        0.1334
     12 C          65.3319   91.5819   15.2672 C.3     1  UNL1        0.0338
     13 O          65.0504   92.4641   12.8398 O.3     1  UNL1       -0.3527
     14 C          64.5251   92.2869   11.4460 C.3     1  UNL1        0.1635
     15 C          63.7560   91.0505   11.0859 C.3     1  UNL1        0.1256
     16 N          63.5122   89.9912   12.1195 N.pl3   1  UNL1       -0.2761
     17 C          62.9721   84.8253   12.2660 C.ar    1  UNL1        0.0485
     18 C          62.9225   84.4375   13.7142 C.ar    1  UNL1        0.0244
     19 C          63.4215   83.0910   14.1476 C.ar    1  UNL1        0.0991
     20 N          63.9701   82.1322   13.1329 N.ar    1  UNL1       -0.2400
     21 C          64.0198   82.5200   11.6847 C.ar    1  UNL1        0.1285
     22 C          63.5207   83.8665   11.2512 C.ar    1  UNL1        0.1606
     23 F          63.5703   84.2542    9.8031 F       1  UNL1       -0.2025
@<TRIPOS>BOND
     1    10     9    1
     2    10    11    1
     3    11    12    1
     4    11    13    1
     5    13    14    1
     6    14    15    1
     7    15    16    1
     8    16     1    1
     9     1     2   ar
    10     2     3   ar
    11     3    17    1
    12    17    18   ar
    13    18    19   ar
    14    19    20   ar
    15    20    21   ar
    16    21    22   ar
    17    22    23    1
    18     3     4   ar
    19     4     5   ar
    20     5     6    2
    21     5     7   ar
    22     7     8    1
    23    16    10    1
    24     7     1   ar
    25    22    17   ar
@<TRIPOS>MOLECULE
*****
 23 25 0 0 0
SMALL
GASTEIGER

@<TRIPOS>ATOM
      1 C          62.8855   86.3615   11.8135 C.ar    1  UNL1        0.2035
      2 N          63.1793   87.7294   12.3544 N.ar    1  UNL1       -0.2147
      3 C          63.7744   87.8829   13.7227 C.ar    1  UNL1        0.0911
      4 C          64.0757   86.6684   14.5501 C.ar    1  UNL1        0.0801
      5 C          63.7819   85.3006   14.0091 C.ar    1  UNL1        0.2645
      6 O          64.0831   84.0862   14.8365 O.2     1  UNL1       -0.2668
      7 N          63.1867   85.1472   12.6408 N.ar    1  UNL1       -0.2667
      8 C          62.8929   83.7793   12.0998 C.3     1  UNL1        0.1363
      9 C          60.2778   87.6902   11.1542 C.3     1  UNL1        0.0241
     10 C          60.9865   86.8724   10.1155 C.3     1  UNL1        0.1027
     11 C          60.3914   86.7190    8.7472 C.3     1  UNL1        0.1334
     12 C          59.0876   87.3833    8.4175 C.3     1  UNL1        0.0338
     13 O          61.1002   85.9012    7.7085 O.3     1  UNL1       -0.3527
     14 C          62.4040   85.2369    8.0381 C.3     1  UNL1        0.1635
     15 C          62.9991   85.3903    9.4064 C.3     1  UNL1        0.1256
     16 N          62.2903   86.2081   10.4451 N.pl3   1  UNL1       -0.2761
     17 C          64.0683   89.2507   14.2637 C.ar    1  UNL1        0.0485
     18 C          64.8082   90.2473   13.4215 C.ar    1  UNL1        0.0244
     19 C          65.1021   91.6151   13.9625 C.ar    1  UNL1        0.0991
     20 N          64.6560   91.9864   15.3456 N.ar    1  UNL1       -0.2400
     21 C          63.9160   90.9898   16.1879 C.ar    1  UNL1        0.1285
     22 C          63.6222   89.6220   15.6469 C.ar    1  UNL1        0.1606
     23 F          62.8822   88.6254   16.4891 F       1  UNL1       -0.2025
@<TRIPOS>BOND
     1    10     9    1
     2    10    11    1
     3    11    12    1
     4    11    13    1
     5    13    14    1
     6    14    15    1
     7    15    16    1
     8    16     1    1
     9     1     2   ar
    10     2     3   ar
    11     3    17    1
    12    17    18   ar
    13    18    19   ar
    14    19    20   ar
    15    20    21   ar
    16    21    22   ar
    17    22    23    1
    18     3     4   ar
    19     4     5   ar
    20     5     6    2
    21     5     7   ar
    22     7     8    1
    23    16    10    1
    24     7     1   ar
    25    22    17   ar
@<TRIPOS>MOLECULE
*****
 23 25 0 0 0
SMALL
GASTEIGER

@<TRIPOS>ATOM
      1 C          63.4409   89.2490   12.6163 C.ar    1  UNL1        0.2035
      2 N          63.7428   87.8608   13.0976 N.ar    1  UNL1       -0.2147
      3 C          63.0407   86.6853   12.4850 C.ar    1  UNL1        0.0911
      4 C          62.0366   86.8981   11.3911 C.ar    1  UNL1        0.0801
      5 C          61.7347   88.2864   10.9098 C.ar    1  UNL1        0.2645
      6 O          60.7307   88.4992    9.8159 O.2     1  UNL1       -0.2668
      7 N          62.4369   89.4618   11.5224 N.ar    1  UNL1       -0.2667
      8 C          62.1350   90.8501   11.0412 C.3     1  UNL1        0.1363
      9 C          63.3135   89.6946   15.5803 C.3     1  UNL1        0.0241
     10 C          64.0794   90.6473   14.7109 C.3     1  UNL1        0.1027
     11 C          64.7815   91.8227   15.3235 C.3     1  UNL1        0.1334
     12 C          64.7178   92.0455   16.8056 C.3     1  UNL1        0.0338
     13 O          65.5474   92.7753   14.4541 O.3     1  UNL1       -0.3527
     14 C          65.6112   92.5526   12.9722 C.3     1  UNL1        0.1635
     15 C          64.9090   91.3772   12.3596 C.3     1  UNL1        0.1256
     16 N          64.1431   90.4245   13.2290 N.pl3   1  UNL1       -0.2761
     17 C          63.3426   85.2971   12.9663 C.ar    1  UNL1        0.0485
     18 C          63.2352   84.1362   12.0226 C.ar    1  UNL1        0.0244
     19 C          63.5371   82.7479   12.5038 C.ar    1  UNL1        0.0991
     20 N          63.9464   82.5206   13.9289 N.ar    1  UNL1       -0.2400
     21 C          64.0539   83.6816   14.8727 C.ar    1  UNL1        0.1285
     22 C          63.7520   85.0698   14.3914 C.ar    1  UNL1        0.1606
     23 F          63.8594   86.2307   15.3351 F       1  UNL1       -0.2025
@<TRIPOS>BOND
     1    10     9    1
     2    10    11    1
     3    11    12    1
     4    11    13    1
     5    13    14    1
     6    14    15    1
     7    15    16    1
     8    16     1    1
     9     1     2   ar
    10     2     3   ar
    11     3    17    1
    12    17    18   ar
    13    18    19   ar
    14    19    20   ar
    15    20    21   ar
    16    21    22   ar
    17    22    23    1
    18     3     4   ar
    19     4     5   ar
    20     5     6    2
    21     5     7   ar
    22     7     8    1
    23    16    10    1
    24     7     1   ar
    25    22    17   ar
@<TRIPOS>MOLECULE
*****
 23 25 0 0 0
SMALL
GASTEIGER

@<TRIPOS>ATOM
      1 C          62.5063   86.7400   11.7654 C.ar    1  UNL1        0.2035
      2 N          63.3129   87.7932   12.4654 N.ar    1  UNL1       -0.2147
      3 C          63.1144   89.2402   12.1241 C.ar    1  UNL1        0.0911
      4 C          62.1092   89.6342   11.0827 C.ar    1  UNL1        0.0801
      5 C          61.3025   88.5810   10.3827 C.ar    1  UNL1        0.2645
      6 O          60.2973   88.9748    9.3413 O.2     1  UNL1       -0.2668
      7 N          61.5011   87.1338   10.7240 N.ar    1  UNL1       -0.2667
      8 C          60.6944   86.0806   10.0240 C.3     1  UNL1        0.1363
      9 C          63.4040   84.8096    9.6517 C.3     1  UNL1        0.0241
     10 C          63.1537   84.3277   11.0499 C.3     1  UNL1        0.1027
     11 C          63.3522   82.8806   11.3913 C.3     1  UNL1        0.1334
     12 C          63.8011   81.9154   10.3345 C.3     1  UNL1        0.0338
     13 O          63.1019   82.3988   12.7896 O.3     1  UNL1       -0.3527
     14 C          62.6530   83.3639   13.8464 C.3     1  UNL1        0.1635
     15 C          62.4545   84.8109   13.5050 C.3     1  UNL1        0.1256
     16 N          62.7048   85.2928   12.1068 N.pl3   1  UNL1       -0.2761
     17 C          63.9211   90.2935   12.8241 C.ar    1  UNL1        0.0485
     18 C          64.1594   90.1969   14.3019 C.ar    1  UNL1        0.0244
     19 C          64.9661   91.2501   15.0019 C.ar    1  UNL1        0.0991
     20 N          65.5344   92.3999   14.2241 N.ar    1  UNL1       -0.2400
     21 C          65.2961   92.4965   12.7463 C.ar    1  UNL1        0.1285
     22 C          64.4895   91.4433   12.0463 C.ar    1  UNL1        0.1606
     23 F          64.2511   91.5399   10.5685 F       1  UNL1       -0.2025
@<TRIPOS>BOND
     1    10     9    1
     2    10    11    1
     3    11    12    1
     4    11    13    1
     5    13    14    1
     6    14    15    1
     7    15    16    1
     8    16     1    1
     9     1     2   ar
    10     2     3   ar
    11     3    17    1
    12    17    18   ar
    13    18    19   ar
    14    19    20   ar
    15    20    21   ar
    16    21    22   ar
    17    22    23    1
    18     3     4   ar
    19     4     5   ar
    20     5     6    2
    21     5     7   ar
    22     7     8    1
    23    16    10    1
    24     7     1   ar
    25    22    17   ar
@<TRIPOS>MOLECULE
*****
 23 25 0 0 0
SMALL
GASTEIGER

@<TRIPOS>ATOM
      1 C          63.8723   88.2937   14.5566 C.ar    1  UNL1        0.2035
      2 N          63.9292   86.9763   13.8416 N.ar    1  UNL1       -0.2147
      3 C          63.5957   85.7104   14.5739 C.ar    1  UNL1        0.0911
      4 C          63.2053   85.7620   16.0214 C.ar    1  UNL1        0.0801
      5 C          63.1484   87.0794   16.7364 C.ar    1  UNL1        0.2645
      6 O          62.7580   87.1310   18.1837 O.2     1  UNL1       -0.2668
      7 N          63.4820   88.3452   16.0039 N.ar    1  UNL1       -0.2667
      8 C          63.4251   89.6627   16.7189 C.3     1  UNL1        0.1363
      9 C          62.5675   88.8906   11.9219 C.3     1  UNL1        0.0241
     10 C          63.5535   89.8580   12.5068 C.3     1  UNL1        0.1027
     11 C          63.8871   91.1238   11.7745 C.3     1  UNL1        0.1334
     12 C          63.2347   91.4223   10.4571 C.3     1  UNL1        0.0338
     13 O          64.8730   92.0912   12.3594 O.3     1  UNL1       -0.3527
     14 C          65.5254   91.7927   13.6766 C.3     1  UNL1        0.1635
     15 C          65.1919   90.5269   14.4090 C.3     1  UNL1        0.1256
     16 N          64.2059   89.5595   13.8241 N.pl3   1  UNL1       -0.2761
     17 C          63.6525   84.3930   13.8589 C.ar    1  UNL1        0.0485
     18 C          64.0370   83.1504   14.6058 C.ar    1  UNL1        0.0244
     19 C          64.0939   81.8329   13.8908 C.ar    1  UNL1        0.0991
     20 N          63.7662   81.7582   12.4289 N.ar    1  UNL1       -0.2400
     21 C          63.3817   83.0010   11.6820 C.ar    1  UNL1        0.1285
     22 C          63.3248   84.3184   12.3970 C.ar    1  UNL1        0.1606
     23 F          62.9403   85.5611   11.6502 F       1  UNL1       -0.2025
@<TRIPOS>BOND
     1    10     9    1
     2    10    11    1
     3    11    12    1
     4    11    13    1
     5    13    14    1
     6    14    15    1
     7    15    16    1
     8    16     1    1
     9     1     2   ar
    10     2     3   ar
    11     3    17    1
    12    17    18   ar
    13    18    19   ar
    14    19    20   ar
    15    20    21   ar
    16    21    22   ar
    17    22    23    1
    18     3     4   ar
    19     4     5   ar
    20     5     6    2
    21     5     7   ar
    22     7     8    1
    23    16    10    1
    24     7     1   ar
    25    22    17   ar
@<TRIPOS>MOLECULE
*****
 23 25 0 0 0
SMALL
GASTEIGER

@<TRIPOS>ATOM
      1 C          61.9150   87.1760   10.5399 C.ar    1  UNL1        0.2035
      2 N          62.3251   86.1232   11.5265 N.ar    1  UNL1       -0.2147
      3 C          63.1222   86.5018   12.7394 C.ar    1  UNL1        0.0911
      4 C          63.5093   87.9332   12.9658 C.ar    1  UNL1        0.0801
      5 C          63.0992   88.9860   11.9792 C.ar    1  UNL1        0.2645
      6 O          63.4862   90.4174   12.2055 O.2     1  UNL1       -0.2668
      7 N          62.3020   88.6074   10.7663 N.ar    1  UNL1       -0.2667
      8 C          61.8919   89.6602    9.7797 C.3     1  UNL1        0.1363
      9 C          63.0849   85.3175    8.4961 C.3     1  UNL1        0.0241
     10 C          61.7028   85.8681    8.3051 C.3     1  UNL1        0.1027
     11 C          60.9056   85.4895    7.0922 C.3     1  UNL1        0.1334
     12 C          61.4905   84.5603    6.0702 C.3     1  UNL1        0.0338
     13 O          59.5234   86.0402    6.9012 O.3     1  UNL1       -0.3527
     14 C          58.9385   86.9694    7.9231 C.3     1  UNL1        0.1635
     15 C          59.7356   87.3480    9.1360 C.3     1  UNL1        0.1256
     16 N          61.1178   86.7974    9.3270 N.pl3   1  UNL1       -0.2761
     17 C          63.5324   85.4489   13.7260 C.ar    1  UNL1        0.0485
     18 C          63.9694   85.8434   15.1056 C.ar    1  UNL1        0.0244
     19 C          64.3795   84.7906   16.0922 C.ar    1  UNL1        0.0991
     20 N          64.3526   83.3433   15.6992 N.ar    1  UNL1       -0.2400
     21 C          63.9156   82.9487   14.3195 C.ar    1  UNL1        0.1285
     22 C          63.5054   84.0015   13.3330 C.ar    1  UNL1        0.1606
     23 F          63.0684   83.6071   11.9534 F       1  UNL1       -0.2025
@<TRIPOS>BOND
     1    10     9    1
     2    10    11    1
     3    11    12    1
     4    11    13    1
     5    13    14    1
     6    14    15    1
     7    15    16    1
     8    16     1    1
     9     1     2   ar
    10     2     3   ar
    11     3    17    1
    12    17    18   ar
    13    18    19   ar
    14    19    20   ar
    15    20    21   ar
    16    21    22   ar
    17    22    23    1
    18     3     4   ar
    19     4     5   ar
    20     5     6    2
    21     5     7   ar
    22     7     8    1
    23    16    10    1
    24     7     1   ar
    25    22    17   ar
@<TRIPOS>MOLECULE
*****
 23 25 0 0 0
SMALL
GASTEIGER

@<TRIPOS>ATOM
      1 C          62.8551   84.5366   12.7850 C.ar    1  UNL1        0.2035
      2 N          62.0975   85.3841   11.8063 N.ar    1  UNL1       -0.2147
      3 C          62.2793   86.8730   11.8054 C.ar    1  UNL1        0.0911
      4 C          63.2187   87.5145   12.7832 C.ar    1  UNL1        0.0801
      5 C          63.9763   86.6671   13.7619 C.ar    1  UNL1        0.2645
      6 O          64.9157   87.3085   14.7397 O.2     1  UNL1       -0.2668
      7 N          63.7945   85.1781   13.7628 N.ar    1  UNL1       -0.2667
      8 C          64.5521   84.3306   14.7414 C.3     1  UNL1        0.1363
      9 C          63.5716   82.9365   10.3506 C.3     1  UNL1        0.0241
     10 C          63.0315   82.2476   11.5687 C.3     1  UNL1        0.1027
     11 C          62.8497   80.7587   11.5696 C.3     1  UNL1        0.1334
     12 C          63.2080   79.9586   10.3524 C.3     1  UNL1        0.0338
     13 O          62.3096   80.0698   12.7877 O.3     1  UNL1       -0.3527
     14 C          61.9513   80.8699   14.0049 C.3     1  UNL1        0.1635
     15 C          62.1332   82.3588   14.0039 C.3     1  UNL1        0.1256
     16 N          62.6733   83.0476   12.7859 N.pl3   1  UNL1       -0.2761
     17 C          61.5216   87.7205   10.8267 C.ar    1  UNL1        0.0485
     18 C          61.0599   89.0918   11.2221 C.ar    1  UNL1        0.0244
     19 C          60.3023   89.9393   10.2434 C.ar    1  UNL1        0.0991
     20 N          60.0064   89.4155    8.8694 N.ar    1  UNL1       -0.2400
     21 C          60.4682   88.0442    8.4739 C.ar    1  UNL1        0.1285
     22 C          61.2258   87.1967    9.4526 C.ar    1  UNL1        0.1606
     23 F          61.6875   85.8254    9.0572 F       1  UNL1       -0.2025
@<TRIPOS>BOND
     1    10     9    1
     2    10    11    1
     3    11    12    1
     4    11    13    1
     5    13    14    1
     6    14    15    1
     7    15    16    1
     8    16     1    1
     9     1     2   ar
    10     2     3   ar
    11     3    17    1
    12    17    18   ar
    13    18    19   ar
    14    19    20   ar
    15    20    21   ar
    16    21    22   ar
    17    22    23    1
    18     3     4   ar
    19     4     5   ar
    20     5     6    2
    21     5     7   ar
    22     7     8    1
    23    16    10    1
    24     7     1   ar
    25    22    17   ar
