@<TRIPOS>MOLECULE
*****
 31 34 0 0 0
SMALL
GASTEIGER

@<TRIPOS>ATOM
      1 C          60.2458   87.9465    9.6254 C.ar    1  UNL1        0.1518
      2 C          59.8212   89.2863   10.1493 C.ar    1  UNL1        0.0396
      3 C          60.8541   90.2834   10.5840 C.ar    1  UNL1        0.0236
      4 C          62.3117   89.9407   10.4947 C.ar    1  UNL1        0.1306
      5 C          62.7363   88.6009    9.9707 C.ar    1  UNL1        0.0378
      6 C          61.7035   87.6038    9.5361 C.ar    1  UNL1        0.0804
      7 S          63.3445   90.9378   10.9294 S.O2    1  UNL1        0.1006
      8 O          63.0911   91.7414    9.6885 O.2     1  UNL1       -0.1463
      9 O          63.5980   90.1342   12.1703 O.2     1  UNL1       -0.1463
     10 N          64.3774   91.9349   11.3641 N.ar    1  UNL1       -0.1278
     11 N          64.9437   93.0411   10.5240 N.ar    1  UNL1       -0.1528
     12 C          65.9416   93.7907   11.3560 C.ar    1  UNL1        0.0822
     13 C          66.7475   94.9752   10.9117 C.3     1  UNL1        0.0540
     14 C          65.9921   93.1478   12.7103 C.ar    1  UNL1        0.0353
     15 C          66.7934   93.4586   13.9396 C.ar    1  UNL1        0.0142
     16 C          66.6280   92.6225   15.1739 C.ar    1  UNL1        0.0578
     17 CL         67.4294   92.9333   16.4033 Cl      1  UNL1       -0.0822
     18 C          65.6613   91.4756   15.1789 C.ar    1  UNL1        0.0130
     19 C          64.8600   91.1648   13.9496 C.ar    1  UNL1        0.0216
     20 C          65.0254   92.0009   12.7154 C.ar    1  UNL1        0.1037
     21 C          58.9283   86.7524    7.7312 C.3     1  UNL1        0.2525
     22 O          59.2130   86.9494    9.1907 O.3     1  UNL1       -0.4702
     23 N          62.1281   86.2640    9.0121 N.pl3   1  UNL1       -0.3316
     24 H          62.0806   86.0752    8.0471 H       1  UNL1        0.1469
     25 C          62.6252   85.2118    9.9586 C.3     1  UNL1        0.0719
     26 C          62.2107   85.2432   11.3999 C.3     1  UNL1        0.0368
     27 C          62.7079   84.1909   12.3464 C.3     1  UNL1        0.0738
     28 N          63.6194   83.1074   11.8515 N.3     1  UNL1       -0.2714
     29 C          64.1166   82.0552   12.7979 C.3     1  UNL1        0.0896
     30 C          64.0339   83.0760   10.4102 C.3     1  UNL1        0.0738
     31 C          63.5368   84.1282    9.4638 C.3     1  UNL1        0.0368
@<TRIPOS>BOND
     1    21    22    1
     2    22     1    1
     3     1     2   ar
     4     2     3   ar
     5     3     4   ar
     6     4     7    1
     7     7     8    2
     8     7     9    2
     9     7    10    1
    10    10    11   ar
    11    11    12   ar
    12    12    13    1
    13    12    14   ar
    14    14    15   ar
    15    15    16   ar
    16    16    17    1
    17    16    18   ar
    18    18    19   ar
    19    19    20   ar
    20     4     5   ar
    21     5     6   ar
    22     6    23    1
    23    23    25    1
    24    25    26    1
    25    26    27    1
    26    27    28    1
    27    28    29    1
    28    28    30    1
    29    30    31    1
    30     6     1   ar
    31    31    25    1
    32    20    10   ar
    33    20    14   ar
    34    23    24    1
@<TRIPOS>MOLECULE
*****
 31 34 0 0 0
SMALL
GASTEIGER

@<TRIPOS>ATOM
      1 C          65.0515   90.7945   14.2323 C.ar    1  UNL1        0.1518
      2 C          64.4623   89.4174   14.3118 C.ar    1  UNL1        0.0396
      3 C          63.5899   88.9097   13.2022 C.ar    1  UNL1        0.0236
      4 C          63.3068   89.7791   12.0131 C.ar    1  UNL1        0.1306
      5 C          63.8960   91.1562   11.9336 C.ar    1  UNL1        0.0378
      6 C          64.7683   91.6639   13.0432 C.ar    1  UNL1        0.0804
      7 S          62.4344   89.2712   10.9035 S.O2    1  UNL1        0.1006
      8 O          61.8773   88.2235   11.8210 O.2     1  UNL1       -0.1463
      9 O          62.9916   90.3190    9.9861 O.2     1  UNL1       -0.1463
     10 N          61.5621   88.7635    9.7939 N.ar    1  UNL1       -0.1278
     11 N          60.3449   89.4477    9.2458 N.ar    1  UNL1       -0.1528
     12 C          59.7844   88.5894    8.1508 C.ar    1  UNL1        0.0822
     13 C          58.5669   88.8925    7.3287 C.3     1  UNL1        0.0540
     14 C          60.6551   87.3748    8.0221 C.ar    1  UNL1        0.0353
     15 C          60.5895   86.1847    7.1114 C.ar    1  UNL1        0.0142
     16 C          61.6225   85.1022    7.2162 C.ar    1  UNL1        0.0578
     17 CL         61.5569   83.9121    6.3055 Cl      1  UNL1       -0.0822
     18 C          62.7212   85.2098    8.2318 C.ar    1  UNL1        0.0130
     19 C          62.7868   86.3999    9.1425 C.ar    1  UNL1        0.0216
     20 C          61.7538   87.4823    9.0376 C.ar    1  UNL1        0.1037
     21 C          67.3763   91.5779   15.0877 C.3     1  UNL1        0.2525
     22 O          65.9238   91.3024   15.3418 O.3     1  UNL1       -0.4702
     23 N          65.3575   93.0410   12.9637 N.pl3   1  UNL1       -0.3316
     24 H          65.3421   93.6294   13.7529 H       1  UNL1        0.1469
     25 C          65.9702   93.5218   11.6817 C.3     1  UNL1        0.0719
     26 C          66.8980   92.6286   10.9125 C.3     1  UNL1        0.0368
     27 C          67.5106   93.1094    9.6305 C.3     1  UNL1        0.0738
     28 N          67.1955   94.4833    9.1177 N.3     1  UNL1       -0.2714
     29 C          67.8082   94.9641    7.8357 C.3     1  UNL1        0.0896
     30 C          66.2678   95.3765    9.8868 C.3     1  UNL1        0.0738
     31 C          65.6551   94.8957   11.1688 C.3     1  UNL1        0.0368
@<TRIPOS>BOND
     1    21    22    1
     2    22     1    1
     3     1     2   ar
     4     2     3   ar
     5     3     4   ar
     6     4     7    1
     7     7     8    2
     8     7     9    2
     9     7    10    1
    10    10    11   ar
    11    11    12   ar
    12    12    13    1
    13    12    14   ar
    14    14    15   ar
    15    15    16   ar
    16    16    17    1
    17    16    18   ar
    18    18    19   ar
    19    19    20   ar
    20     4     5   ar
    21     5     6   ar
    22     6    23    1
    23    23    25    1
    24    25    26    1
    25    26    27    1
    26    27    28    1
    27    28    29    1
    28    28    30    1
    29    30    31    1
    30     6     1   ar
    31    31    25    1
    32    20    10   ar
    33    20    14   ar
    34    23    24    1
@<TRIPOS>MOLECULE
*****
 31 34 0 0 0
SMALL
GASTEIGER

@<TRIPOS>ATOM
      1 C          65.7908   92.4086   15.1584 C.ar    1  UNL1        0.1518
      2 C          64.6878   91.6344   15.8172 C.ar    1  UNL1        0.0396
      3 C          63.9810   90.5469   15.0636 C.ar    1  UNL1        0.0236
      4 C          64.3772   90.2337   13.6512 C.ar    1  UNL1        0.1306
      5 C          65.4801   91.0079   12.9924 C.ar    1  UNL1        0.0378
      6 C          66.1869   92.0952   13.7459 C.ar    1  UNL1        0.0804
      7 S          63.6703   89.1462   12.8976 S.O2    1  UNL1        0.1006
      8 O          63.8565   88.2186   14.0615 O.2     1  UNL1       -0.1463
      9 O          63.4840   90.0739   11.7337 O.2     1  UNL1       -0.1463
     10 N          62.9634   88.0588   12.1440 N.ar    1  UNL1       -0.1278
     11 N          63.1075   86.5847   12.3810 N.ar    1  UNL1       -0.1528
     12 C          62.2214   85.8695   11.4046 C.ar    1  UNL1        0.0822
     13 C          62.0561   84.3832   11.2889 C.3     1  UNL1        0.0540
     14 C          61.5298   86.9016   10.5641 C.ar    1  UNL1        0.0353
     15 C          60.5417   86.7842    9.4417 C.ar    1  UNL1        0.0142
     16 C          60.0122   88.0198    8.7763 C.ar    1  UNL1        0.0578
     17 CL         59.0241   87.9024    7.6538 Cl      1  UNL1       -0.0822
     18 C          60.4708   89.3729    9.2333 C.ar    1  UNL1        0.0130
     19 C          61.4589   89.4904   10.3557 C.ar    1  UNL1        0.0216
     20 C          61.9884   88.2547   11.0211 C.ar    1  UNL1        0.1037
     21 C          67.9855   93.4373   16.0938 C.3     1  UNL1        0.2525
     22 O          66.4976   93.4960   15.9119 O.3     1  UNL1       -0.4702
     23 N          67.2899   92.8694   13.0871 N.pl3   1  UNL1       -0.3316
     24 H          68.1933   92.8691   13.4784 H       1  UNL1        0.1469
     25 C          67.0165   93.6442   11.8321 C.3     1  UNL1        0.0719
     26 C          67.4586   93.1025   10.5050 C.3     1  UNL1        0.0368
     27 C          67.1851   93.8774    9.2500 C.3     1  UNL1        0.0738
     28 N          66.4696   95.1936    9.3222 N.3     1  UNL1       -0.2714
     29 C          66.1961   95.9685    8.0672 C.3     1  UNL1        0.0896
     30 C          66.0274   95.7352   10.6492 C.3     1  UNL1        0.0738
     31 C          66.3009   94.9605   11.9042 C.3     1  UNL1        0.0368
@<TRIPOS>BOND
     1    21    22    1
     2    22     1    1
     3     1     2   ar
     4     2     3   ar
     5     3     4   ar
     6     4     7    1
     7     7     8    2
     8     7     9    2
     9     7    10    1
    10    10    11   ar
    11    11    12   ar
    12    12    13    1
    13    12    14   ar
    14    14    15   ar
    15    15    16   ar
    16    16    17    1
    17    16    18   ar
    18    18    19   ar
    19    19    20   ar
    20     4     5   ar
    21     5     6   ar
    22     6    23    1
    23    23    25    1
    24    25    26    1
    25    26    27    1
    26    27    28    1
    27    28    29    1
    28    28    30    1
    29    30    31    1
    30     6     1   ar
    31    31    25    1
    32    20    10   ar
    33    20    14   ar
    34    23    24    1
@<TRIPOS>MOLECULE
*****
 31 34 0 0 0
SMALL
GASTEIGER

@<TRIPOS>ATOM
      1 C          60.3472   87.6044    9.6015 C.ar    1  UNL1        0.1518
      2 C          59.8828   88.9348   10.1157 C.ar    1  UNL1        0.0396
      3 C          60.8498   89.8518   10.8041 C.ar    1  UNL1        0.0236
      4 C          62.2811   89.4385   10.9784 C.ar    1  UNL1        0.1306
      5 C          62.7455   88.1081   10.4642 C.ar    1  UNL1        0.0378
      6 C          61.7786   87.1911    9.7758 C.ar    1  UNL1        0.0804
      7 S          63.2481   90.3557   11.6668 S.O2    1  UNL1        0.1006
      8 O          62.9263   91.4370   10.6784 O.2     1  UNL1       -0.1463
      9 O          63.5699   89.2743   12.6553 O.2     1  UNL1       -0.1463
     10 N          64.2150   91.2728   12.3553 N.ar    1  UNL1       -0.1278
     11 N          64.7077   91.1367   13.7655 N.ar    1  UNL1       -0.1528
     12 C          65.6562   92.2668   14.0362 C.ar    1  UNL1        0.0822
     13 C          66.3835   92.5183   15.3237 C.3     1  UNL1        0.0540
     14 C          65.7497   93.1013   12.7932 C.ar    1  UNL1        0.0353
     15 C          66.5308   94.3412   12.4732 C.ar    1  UNL1        0.0142
     16 C          66.4212   94.9667   11.1143 C.ar    1  UNL1        0.0578
     17 CL         67.2024   96.2067   10.7942 Cl      1  UNL1       -0.0822
     18 C          65.5305   94.3524   10.0755 C.ar    1  UNL1        0.0130
     19 C          64.7494   93.1125   10.3955 C.ar    1  UNL1        0.0216
     20 C          64.8590   92.4870   11.7544 C.ar    1  UNL1        0.1037
     21 C          59.0393   86.9044    7.4686 C.3     1  UNL1        0.2525
     22 O          59.3803   86.6872    8.9131 O.3     1  UNL1       -0.4702
     23 N          62.2430   85.8607    9.2617 N.pl3   1  UNL1       -0.3316
     24 H          62.2394   85.6783    8.2942 H       1  UNL1        0.1469
     25 C          62.7128   84.8081   10.2215 C.3     1  UNL1        0.0719
     26 C          62.2890   84.8615   11.6595 C.3     1  UNL1        0.0368
     27 C          62.7589   83.8088   12.6194 C.3     1  UNL1        0.0738
     28 N          63.6524   82.7030   12.1413 N.3     1  UNL1       -0.2714
     29 C          64.1223   81.6504   13.1012 C.3     1  UNL1        0.0896
     30 C          64.0762   82.6497   10.7034 C.3     1  UNL1        0.0738
     31 C          63.6064   83.7022    9.7435 C.3     1  UNL1        0.0368
@<TRIPOS>BOND
     1    21    22    1
     2    22     1    1
     3     1     2   ar
     4     2     3   ar
     5     3     4   ar
     6     4     7    1
     7     7     8    2
     8     7     9    2
     9     7    10    1
    10    10    11   ar
    11    11    12   ar
    12    12    13    1
    13    12    14   ar
    14    14    15   ar
    15    15    16   ar
    16    16    17    1
    17    16    18   ar
    18    18    19   ar
    19    19    20   ar
    20     4     5   ar
    21     5     6   ar
    22     6    23    1
    23    23    25    1
    24    25    26    1
    25    26    27    1
    26    27    28    1
    27    28    29    1
    28    28    30    1
    29    30    31    1
    30     6     1   ar
    31    31    25    1
    32    20    10   ar
    33    20    14   ar
    34    23    24    1
@<TRIPOS>MOLECULE
*****
 31 34 0 0 0
SMALL
GASTEIGER

@<TRIPOS>ATOM
      1 C          60.6933   88.4240    9.5882 C.ar    1  UNL1        0.1518
      2 C          60.2543   89.7289   10.1836 C.ar    1  UNL1        0.0396
      3 C          61.0506   90.3539   11.2905 C.ar    1  UNL1        0.0236
      4 C          62.2859   89.6740   11.8020 C.ar    1  UNL1        0.1306
      5 C          62.7249   88.3690   11.2067 C.ar    1  UNL1        0.0378
      6 C          61.9286   87.7441   10.0999 C.ar    1  UNL1        0.0804
      7 S          63.0822   90.2991   12.9090 S.O2    1  UNL1        0.1006
      8 O          63.0790   91.6061   12.1732 O.2     1  UNL1       -0.1463
      9 O          63.0853   88.9919   13.6447 O.2     1  UNL1       -0.1463
     10 N          63.8785   90.9240   14.0159 N.ar    1  UNL1       -0.1278
     11 N          63.3798   91.2285   15.3975 N.ar    1  UNL1       -0.1528
     12 C          64.5064   91.8469   16.1710 C.ar    1  UNL1        0.0822
     13 C          64.4482   92.3069   17.5976 C.3     1  UNL1        0.0540
     14 C          65.7013   91.9246   15.2676 C.ar    1  UNL1        0.0353
     15 C          67.0925   92.4411   15.4857 C.ar    1  UNL1        0.0142
     16 C          68.0957   92.3871   14.3719 C.ar    1  UNL1        0.0578
     17 CL         69.4871   92.9036   14.5900 Cl      1  UNL1       -0.0822
     18 C          67.7077   91.8167   13.0400 C.ar    1  UNL1        0.0130
     19 C          66.3164   91.3003   12.8219 C.ar    1  UNL1        0.0216
     20 C          65.3132   91.3542   13.9357 C.ar    1  UNL1        0.1037
     21 C          59.3900   88.6455    7.3516 C.3     1  UNL1        0.2525
     22 O          59.8970   87.7989    8.4814 O.3     1  UNL1       -0.4702
     23 N          62.3676   86.4391    9.5045 N.pl3   1  UNL1       -0.3316
     24 H          62.4350   86.3419    8.5271 H       1  UNL1        0.1469
     25 C          62.7039   85.2824   10.3983 C.3     1  UNL1        0.0719
     26 C          62.2547   85.2851   11.8295 C.3     1  UNL1        0.0368
     27 C          62.5910   84.1282   12.7233 C.3     1  UNL1        0.0738
     28 N          63.3765   82.9689   12.1859 N.3     1  UNL1       -0.2714
     29 C          63.7128   81.8121   13.0796 C.3     1  UNL1        0.0896
     30 C          63.8257   82.9663   10.7547 C.3     1  UNL1        0.0738
     31 C          63.4894   84.1230    9.8609 C.3     1  UNL1        0.0368
@<TRIPOS>BOND
     1    21    22    1
     2    22     1    1
     3     1     2   ar
     4     2     3   ar
     5     3     4   ar
     6     4     7    1
     7     7     8    2
     8     7     9    2
     9     7    10    1
    10    10    11   ar
    11    11    12   ar
    12    12    13    1
    13    12    14   ar
    14    14    15   ar
    15    15    16   ar
    16    16    17    1
    17    16    18   ar
    18    18    19   ar
    19    19    20   ar
    20     4     5   ar
    21     5     6   ar
    22     6    23    1
    23    23    25    1
    24    25    26    1
    25    26    27    1
    26    27    28    1
    27    28    29    1
    28    28    30    1
    29    30    31    1
    30     6     1   ar
    31    31    25    1
    32    20    10   ar
    33    20    14   ar
    34    23    24    1
@<TRIPOS>MOLECULE
*****
 31 34 0 0 0
SMALL
GASTEIGER

@<TRIPOS>ATOM
      1 C          65.6183   92.1989   15.2047 C.ar    1  UNL1        0.1518
      2 C          64.4810   91.4202   15.7964 C.ar    1  UNL1        0.0396
      3 C          63.7699   90.3879   14.9724 C.ar    1  UNL1        0.0236
      4 C          64.1961   90.1345   13.5568 C.ar    1  UNL1        0.1306
      5 C          65.3334   90.9132   12.9651 C.ar    1  UNL1        0.0378
      6 C          66.0444   91.9454   13.7889 C.ar    1  UNL1        0.0804
      7 S          63.4849   89.1022   12.7329 S.O2    1  UNL1        0.1006
      8 O          63.2297   90.1276   11.6684 O.2     1  UNL1       -0.1463
      9 O          63.7402   88.0768   13.7975 O.2     1  UNL1       -0.1463
     10 N          62.7738   88.0699   11.9091 N.ar    1  UNL1       -0.1278
     11 N          61.8214   88.3435   10.7830 N.ar    1  UNL1       -0.1528
     12 C          61.3492   87.0254   10.2447 C.ar    1  UNL1        0.0822
     13 C          60.3856   86.8298    9.1120 C.3     1  UNL1        0.0540
     14 C          62.0098   85.9372   11.0381 C.ar    1  UNL1        0.0353
     15 C          61.9234   84.4420   10.9568 C.ar    1  UNL1        0.0142
     16 C          62.7175   83.5922   11.9041 C.ar    1  UNL1        0.0578
     17 CL         62.6311   82.0969   11.8228 Cl      1  UNL1       -0.0822
     18 C          63.5979   84.2378   12.9327 C.ar    1  UNL1        0.0130
     19 C          63.6843   85.7330   13.0140 C.ar    1  UNL1        0.0216
     20 C          62.8903   86.5828   12.0667 C.ar    1  UNL1        0.1037
     21 C          67.8165   93.1524   16.2090 C.3     1  UNL1        0.2525
     22 O          66.3294   93.2311   16.0285 O.3     1  UNL1       -0.4702
     23 N          67.1817   92.7241   13.1972 N.pl3   1  UNL1       -0.3316
     24 H          68.0493   92.7580   13.6614 H       1  UNL1        0.1469
     25 C          66.9972   93.4513   11.8983 C.3     1  UNL1        0.0719
     26 C          66.3029   94.7808   11.8751 C.3     1  UNL1        0.0368
     27 C          66.1183   95.5079   10.5761 C.3     1  UNL1        0.0738
     28 N          66.6281   94.9056    9.3005 N.3     1  UNL1       -0.2714
     29 C          66.4435   95.6327    8.0015 C.3     1  UNL1        0.0896
     30 C          67.3223   93.5761    9.3237 C.3     1  UNL1        0.0738
     31 C          67.5068   92.8490   10.6226 C.3     1  UNL1        0.0368
@<TRIPOS>BOND
     1    21    22    1
     2    22     1    1
     3     1     2   ar
     4     2     3   ar
     5     3     4   ar
     6     4     7    1
     7     7     8    2
     8     7     9    2
     9     7    10    1
    10    10    11   ar
    11    11    12   ar
    12    12    13    1
    13    12    14   ar
    14    14    15   ar
    15    15    16   ar
    16    16    17    1
    17    16    18   ar
    18    18    19   ar
    19    19    20   ar
    20     4     5   ar
    21     5     6   ar
    22     6    23    1
    23    23    25    1
    24    25    26    1
    25    26    27    1
    26    27    28    1
    27    28    29    1
    28    28    30    1
    29    30    31    1
    30     6     1   ar
    31    31    25    1
    32    20    10   ar
    33    20    14   ar
    34    23    24    1
@<TRIPOS>MOLECULE
*****
 31 34 0 0 0
SMALL
GASTEIGER

@<TRIPOS>ATOM
      1 C          63.6234   81.9510   11.1469 C.ar    1  UNL1        0.1518
      2 C          63.5765   81.4677   12.5661 C.ar    1  UNL1        0.0396
      3 C          63.4747   82.4542   13.6914 C.ar    1  UNL1        0.0236
      4 C          63.4198   83.9241   13.3975 C.ar    1  UNL1        0.1306
      5 C          63.4668   84.4074   11.9782 C.ar    1  UNL1        0.0378
      6 C          63.5686   83.4209   10.8530 C.ar    1  UNL1        0.0804
      7 S          63.3180   84.9107   14.5228 S.O2    1  UNL1        0.1006
      8 O          64.8138   85.0117   14.5697 O.2     1  UNL1       -0.1463
      9 O          61.8221   84.8097   14.4759 O.2     1  UNL1       -0.1463
     10 N          63.2161   85.8972   15.6482 N.ar    1  UNL1       -0.1278
     11 N          62.8313   85.5834   17.0636 N.ar    1  UNL1       -0.1528
     12 C          62.8585   86.8630   17.8459 C.ar    1  UNL1        0.0822
     13 C          62.5400   87.0119   19.3041 C.3     1  UNL1        0.0540
     14 C          63.2601   87.9676   16.9139 C.ar    1  UNL1        0.0353
     15 C          63.4531   89.4398   17.1266 C.ar    1  UNL1        0.0142
     16 C          63.8671   90.3151   15.9810 C.ar    1  UNL1        0.0578
     17 CL         64.0601   91.7874   16.1937 Cl      1  UNL1       -0.0822
     18 C          64.0881   89.7182   14.6228 C.ar    1  UNL1        0.0130
     19 C          63.8951   88.2460   14.4101 C.ar    1  UNL1        0.0216
     20 C          63.4811   87.3707   15.5556 C.ar    1  UNL1        0.1037
     21 C          62.8500   79.7463   10.0106 C.3     1  UNL1        0.2525
     22 O          63.7252   80.9645   10.0215 O.3     1  UNL1       -0.4702
     23 N          63.6155   83.9042    9.4338 N.pl3   1  UNL1       -0.3316
     24 H          64.3290   83.5929    8.8311 H       1  UNL1        0.1469
     25 C          62.5754   84.8619    8.9328 C.3     1  UNL1        0.0719
     26 C          62.0528   85.9408    9.8346 C.3     1  UNL1        0.0368
     27 C          61.0126   86.8985    9.3335 C.3     1  UNL1        0.0738
     28 N          60.4951   86.7772    7.9309 N.3     1  UNL1       -0.2714
     29 C          59.4549   87.7349    7.4299 C.3     1  UNL1        0.0896
     30 C          61.0176   85.6984    7.0292 C.3     1  UNL1        0.0738
     31 C          62.0578   84.7407    7.5302 C.3     1  UNL1        0.0368
@<TRIPOS>BOND
     1    21    22    1
     2    22     1    1
     3     1     2   ar
     4     2     3   ar
     5     3     4   ar
     6     4     7    1
     7     7     8    2
     8     7     9    2
     9     7    10    1
    10    10    11   ar
    11    11    12   ar
    12    12    13    1
    13    12    14   ar
    14    14    15   ar
    15    15    16   ar
    16    16    17    1
    17    16    18   ar
    18    18    19   ar
    19    19    20   ar
    20     4     5   ar
    21     5     6   ar
    22     6    23    1
    23    23    25    1
    24    25    26    1
    25    26    27    1
    26    27    28    1
    27    28    29    1
    28    28    30    1
    29    30    31    1
    30     6     1   ar
    31    31    25    1
    32    20    10   ar
    33    20    14   ar
    34    23    24    1
