@<TRIPOS>MOLECULE
*****
 23 26 0 0 0
SMALL
GASTEIGER

@<TRIPOS>ATOM
      1 C          61.8024   88.3661   10.7284 C.2     1  UNL1        0.3425
      2 O          60.5937   88.0692   11.5654 O.2     1  UNL1       -0.2448
      3 C          64.9762   91.7367   13.1526 C.2     1  UNL1        0.1425
      4 C          65.2256   90.9219   14.3870 C.2     1  UNL1        0.0347
      5 C          64.5832   89.5750   14.5391 C.2     1  UNL1        0.0026
      6 C          63.6914   89.0429   13.4567 C.2     1  UNL1       -0.0016
      7 C          63.4421   89.8577   12.2223 C.2     1  UNL1        0.0148
      8 C          62.6169   89.5967   10.9971 C.2     1  UNL1        0.0926
      9 C          62.7494   90.7823   10.0878 C.2     1  UNL1        0.1001
     10 N          63.6563   91.7760   10.7511 N.2     1  UNL1       -0.2585
     11 C          64.0844   91.2046   12.0702 C.3     1  UNL1        0.1818
     12 C          66.5702   93.5831   14.0469 C.3     1  UNL1        0.2521
     13 O          65.6186   93.0836   13.0005 O.2     1  UNL1       -0.4734
     14 O          62.1967   87.4324    9.6225 O.3     1  UNL1       -0.4454
     15 C          61.7817   85.9918    9.6736 C.3     1  UNL1        0.2087
     16 C          62.6006   85.0025   10.4486 C.3     1  UNL1        0.0445
     17 C          63.5078   84.0507    9.7268 C.3     1  UNL1        0.0210
     18 C          64.3267   83.0615   10.5019 C.3     1  UNL1        0.0722
     19 N          64.2384   83.0240   11.9989 N.3     1  UNL1       -0.2727
     20 C          63.3312   83.9758   12.7207 C.3     1  UNL1        0.0722
     21 C          62.5123   84.9651   11.9455 C.3     1  UNL1        0.0210
     22 C          63.7704   83.5838   11.6172 C.3     1  UNL1        0.0722
     23 C          63.0299   84.4783   10.9164 C.3     1  UNL1        0.0210
@<TRIPOS>BOND
     1    12    13    1
     2    13     3    1
     3     3     4    2
     4     4     5    1
     5     5     6    2
     6     6     7    1
     7     7     8    2
     8     8     1    1
     9     1     2    2
    10     1    14    1
    11    14    15    1
    12    15    16    1
    13    16    17    1
    14    17    18    1
    15    18    19    1
    16    19    20    1
    17    20    21    1
    18    19    22    1
    19    22    23    1
    20     8     9    1
    21     9    10    2
    22    10    11    1
    23    11     3    1
    24    11     7    1
    25    21    16    1
    26    23    16    1
@<TRIPOS>MOLECULE
*****
 23 26 0 0 0
SMALL
GASTEIGER

@<TRIPOS>ATOM
      1 C          65.3747   91.7812   14.2482 C.2     1  UNL1        0.3425
      2 O          65.0496   92.4630   15.5441 O.2     1  UNL1       -0.2448
      3 C          62.4698   88.4876   11.4154 C.2     1  UNL1        0.1425
      4 C          62.2395   89.3882   10.2382 C.2     1  UNL1        0.0347
      5 C          62.8262   90.7687   10.2239 C.2     1  UNL1        0.0026
      6 C          63.6432   91.2485   11.3867 C.2     1  UNL1       -0.0016
      7 C          63.8735   90.3479   12.5639 C.2     1  UNL1        0.0148
      8 C          64.6298   90.5434   13.8444 C.2     1  UNL1        0.0926
      9 C          64.5106   89.2838   14.6502 C.2     1  UNL1        0.1001
     10 N          63.6806   88.3099   13.8676 N.2     1  UNL1       -0.2585
     11 C          63.2868   88.9675   12.5783 C.3     1  UNL1        0.1818
     12 C          61.1376   86.5966   10.2325 C.3     1  UNL1        0.2521
     13 O          61.8831   87.1072   11.4298 O.2     1  UNL1       -0.4734
     14 O          66.4447   92.3373   13.3560 O.3     1  UNL1       -0.4454
     15 C          66.0974   93.3620   12.3171 C.3     1  UNL1        0.2087
     16 C          66.8140   93.3666   10.9994 C.3     1  UNL1        0.0445
     17 C          67.5855   92.1573   10.5609 C.3     1  UNL1        0.0210
     18 C          68.3020   92.1620    9.2431 C.3     1  UNL1        0.0722
     19 N          68.2472   93.3761    8.3638 N.3     1  UNL1       -0.2727
     20 C          67.4757   94.5854    8.8023 C.3     1  UNL1        0.0722
     21 C          66.7591   94.5807   10.1202 C.3     1  UNL1        0.0210
     22 C          67.8385   93.4205    9.0773 C.3     1  UNL1        0.0722
     23 C          67.1905   93.4163   10.2688 C.3     1  UNL1        0.0210
@<TRIPOS>BOND
     1    12    13    1
     2    13     3    1
     3     3     4    2
     4     4     5    1
     5     5     6    2
     6     6     7    1
     7     7     8    2
     8     8     1    1
     9     1     2    2
    10     1    14    1
    11    14    15    1
    12    15    16    1
    13    16    17    1
    14    17    18    1
    15    18    19    1
    16    19    20    1
    17    20    21    1
    18    19    22    1
    19    22    23    1
    20     8     9    1
    21     9    10    2
    22    10    11    1
    23    11     3    1
    24    11     7    1
    25    21    16    1
    26    23    16    1
@<TRIPOS>MOLECULE
*****
 23 26 0 0 0
SMALL
GASTEIGER

@<TRIPOS>ATOM
      1 C          62.2185   89.5720   12.0392 C.2     1  UNL1        0.3425
      2 O          60.7556   89.6971   12.3455 O.2     1  UNL1       -0.2448
      3 C          66.0178   93.0103   13.0662 C.2     1  UNL1        0.1425
      4 C          66.2450   93.4810   11.6602 C.2     1  UNL1        0.0347
      5 C          65.4321   92.9086   10.5371 C.2     1  UNL1        0.0026
      6 C          64.3920   91.8654   10.8199 C.2     1  UNL1       -0.0016
      7 C          64.1648   91.3947   12.2258 C.2     1  UNL1        0.0148
      8 C          63.2177   90.3866   12.8061 C.2     1  UNL1        0.0926
      9 C          63.4453   90.3359   14.2879 C.2     1  UNL1        0.1001
     10 N          64.5330   91.3128   14.6234 N.2     1  UNL1       -0.2585
     11 C          64.9777   91.9672   13.3490 C.3     1  UNL1        0.1818
     12 C          67.9037   92.7573   14.8351 C.3     1  UNL1        0.2521
     13 O          66.8307   93.5828   14.1893 O.2     1  UNL1       -0.4734
     14 O          62.6824   88.6324   10.9658 O.3     1  UNL1       -0.4454
     15 C          62.1345   87.2375   10.9020 C.3     1  UNL1        0.2087
     16 C          61.4495   86.7570    9.6571 C.3     1  UNL1        0.0445
     17 C          60.0353   87.1683    9.3728 C.3     1  UNL1        0.0210
     18 C          59.3504   86.6878    8.1279 C.3     1  UNL1        0.0722
     19 N          60.0796   85.7961    7.1671 N.3     1  UNL1       -0.2727
     20 C          61.4938   85.3848    7.4514 C.3     1  UNL1        0.0722
     21 C          62.1788   85.8653    8.6964 C.3     1  UNL1        0.0210
     22 C          60.4965   86.0341    7.8361 C.3     1  UNL1        0.0722
     23 C          61.1159   86.4685    8.9618 C.3     1  UNL1        0.0210
@<TRIPOS>BOND
     1    12    13    1
     2    13     3    1
     3     3     4    2
     4     4     5    1
     5     5     6    2
     6     6     7    1
     7     7     8    2
     8     8     1    1
     9     1     2    2
    10     1    14    1
    11    14    15    1
    12    15    16    1
    13    16    17    1
    14    17    18    1
    15    18    19    1
    16    19    20    1
    17    20    21    1
    18    19    22    1
    19    22    23    1
    20     8     9    1
    21     9    10    2
    22    10    11    1
    23    11     3    1
    24    11     7    1
    25    21    16    1
    26    23    16    1
@<TRIPOS>MOLECULE
*****
 23 26 0 0 0
SMALL
GASTEIGER

@<TRIPOS>ATOM
      1 C          63.3924   83.8634   14.0642 C.2     1  UNL1        0.3425
      2 O          63.5827   82.5912   14.8355 O.2     1  UNL1       -0.2448
      3 C          62.6846   85.2153    9.0660 C.2     1  UNL1        0.1425
      4 C          61.7439   86.3597    9.3011 C.2     1  UNL1        0.0347
      5 C          61.3422   86.7253   10.6994 C.2     1  UNL1        0.0026
      6 C          61.8813   85.9464   11.8624 C.2     1  UNL1       -0.0016
      7 C          62.8220   84.8020   11.6273 C.2     1  UNL1        0.0148
      8 C          63.5104   83.8589   12.5689 C.2     1  UNL1        0.0926
      9 C          64.3375   82.9104   11.7526 C.2     1  UNL1        0.1001
     10 N          64.1603   83.2674   10.3066 N.2     1  UNL1       -0.2585
     11 C          63.2236   84.4364   10.2291 C.3     1  UNL1        0.1818
     12 C          62.0413   84.6994    6.6023 C.3     1  UNL1        0.2521
     13 O          63.0863   84.8497    7.6678 O.2     1  UNL1       -0.4734
     14 O          63.0840   85.1404   14.7884 O.3     1  UNL1       -0.4454
     15 C          64.1986   86.0508   15.2113 C.3     1  UNL1        0.2087
     16 C          63.9602   87.5277   15.3205 C.3     1  UNL1        0.0445
     17 C          63.3241   88.0955   16.5546 C.3     1  UNL1        0.0210
     18 C          63.0857   89.5724   16.6637 C.3     1  UNL1        0.0722
     19 N          63.4833   90.4815   15.5388 N.3     1  UNL1       -0.2727
     20 C          64.1193   89.9137   14.3047 C.3     1  UNL1        0.0722
     21 C          64.3577   88.4367   14.1955 C.3     1  UNL1        0.0210
     22 C          63.6340   89.6789   15.4332 C.3     1  UNL1        0.0722
     23 C          63.8496   88.3435   15.3344 C.3     1  UNL1        0.0210
@<TRIPOS>BOND
     1    12    13    1
     2    13     3    1
     3     3     4    2
     4     4     5    1
     5     5     6    2
     6     6     7    1
     7     7     8    2
     8     8     1    1
     9     1     2    2
    10     1    14    1
    11    14    15    1
    12    15    16    1
    13    16    17    1
    14    17    18    1
    15    18    19    1
    16    19    20    1
    17    20    21    1
    18    19    22    1
    19    22    23    1
    20     8     9    1
    21     9    10    2
    22    10    11    1
    23    11     3    1
    24    11     7    1
    25    21    16    1
    26    23    16    1
@<TRIPOS>MOLECULE
*****
 23 26 0 0 0
SMALL
GASTEIGER

@<TRIPOS>ATOM
      1 C          62.2511   89.6504   11.4797 C.2     1  UNL1        0.3425
      2 O          62.0417   90.1322   10.0748 O.2     1  UNL1       -0.2448
      3 C          65.9530   92.9574   13.1140 C.2     1  UNL1        0.1425
      4 C          66.3021   93.5410   11.7771 C.2     1  UNL1        0.0347
      5 C          65.5887   93.0710   10.5441 C.2     1  UNL1        0.0026
      6 C          64.5262   92.0174   10.6481 C.2     1  UNL1       -0.0016
      7 C          64.1770   91.4338   11.9850 C.2     1  UNL1        0.0148
      8 C          63.1814   90.3895   12.3953 C.2     1  UNL1        0.0926
      9 C          63.2795   90.2141   13.8818 C.2     1  UNL1        0.1001
     10 N          64.3357   91.1499   14.3902 N.2     1  UNL1       -0.2585
     11 C          64.8905   91.9038   13.2180 C.3     1  UNL1        0.1818
     12 C          67.8419   92.6580   14.8724 C.3     1  UNL1        0.2521
     13 O          66.6664   93.4274   14.3469 O.2     1  UNL1       -0.4734
     14 O          61.5301   88.4294   11.9692 O.3     1  UNL1       -0.4454
     15 C          60.9592   87.4510   10.9860 C.3     1  UNL1        0.2087
     16 C          61.8167   86.3464   10.4433 C.3     1  UNL1        0.0445
     17 C          62.2211   86.3515    8.9989 C.3     1  UNL1        0.0210
     18 C          63.0786   85.2468    8.4563 C.3     1  UNL1        0.0722
     19 N          63.5317   84.1370    9.3580 N.3     1  UNL1       -0.2727
     20 C          63.1272   84.1319   10.8025 C.3     1  UNL1        0.0722
     21 C          62.2697   85.2366   11.3451 C.3     1  UNL1        0.0210
     22 C          63.0628   84.7206    9.7009 C.3     1  UNL1        0.0722
     23 C          62.2874   85.7194   10.1916 C.3     1  UNL1        0.0210
@<TRIPOS>BOND
     1    12    13    1
     2    13     3    1
     3     3     4    2
     4     4     5    1
     5     5     6    2
     6     6     7    1
     7     7     8    2
     8     8     1    1
     9     1     2    2
    10     1    14    1
    11    14    15    1
    12    15    16    1
    13    16    17    1
    14    17    18    1
    15    18    19    1
    16    19    20    1
    17    20    21    1
    18    19    22    1
    19    22    23    1
    20     8     9    1
    21     9    10    2
    22    10    11    1
    23    11     3    1
    24    11     7    1
    25    21    16    1
    26    23    16    1
@<TRIPOS>MOLECULE
*****
 23 26 0 0 0
SMALL
GASTEIGER

@<TRIPOS>ATOM
      1 C          61.4000   89.5056   10.8517 C.2     1  UNL1        0.3425
      2 O          60.2499   89.9793   10.0135 O.2     1  UNL1       -0.2448
      3 C          65.5140   91.7751   13.1398 C.2     1  UNL1        0.1425
      4 C          65.4263   91.0631   14.4571 C.2     1  UNL1        0.0347
      5 C          64.3406   90.0556   14.6944 C.2     1  UNL1        0.0026
      6 C          63.3426   89.7601   13.6143 C.2     1  UNL1       -0.0016
      7 C          63.4303   90.4721   12.2970 C.2     1  UNL1        0.0148
      8 C          62.5950   90.3895   11.0538 C.2     1  UNL1        0.0926
      9 C          63.1643   91.3459   10.0483 C.2     1  UNL1        0.1001
     10 N          64.3516   92.0196   10.6700 N.2     1  UNL1       -0.2585
     11 C          64.5160   91.4796   12.0598 C.3     1  UNL1        0.1818
     12 C          66.2711   94.1061   12.2780 C.3     1  UNL1        0.2521
     13 O          66.5997   92.7826   12.9026 O.2     1  UNL1       -0.4734
     14 O          61.3552   88.1478   11.4879 O.3     1  UNL1       -0.4454
     15 C          62.1812   87.0288   10.9262 C.3     1  UNL1        0.2087
     16 C          61.8341   86.4369    9.5924 C.3     1  UNL1        0.0445
     17 C          62.8799   85.7113    8.7987 C.3     1  UNL1        0.0210
     18 C          62.5327   85.1195    7.4649 C.3     1  UNL1        0.0722
     19 N          61.1397   85.2532    6.9246 N.3     1  UNL1       -0.2727
     20 C          60.0940   85.9788    7.7182 C.3     1  UNL1        0.0722
     21 C          60.4411   86.5707    9.0522 C.3     1  UNL1        0.0210
     22 C          61.2826   85.5942    7.6604 C.3     1  UNL1        0.0722
     23 C          61.5965   86.1293    8.8665 C.3     1  UNL1        0.0210
@<TRIPOS>BOND
     1    12    13    1
     2    13     3    1
     3     3     4    2
     4     4     5    1
     5     5     6    2
     6     6     7    1
     7     7     8    2
     8     8     1    1
     9     1     2    2
    10     1    14    1
    11    14    15    1
    12    15    16    1
    13    16    17    1
    14    17    18    1
    15    18    19    1
    16    19    20    1
    17    20    21    1
    18    19    22    1
    19    22    23    1
    20     8     9    1
    21     9    10    2
    22    10    11    1
    23    11     3    1
    24    11     7    1
    25    21    16    1
    26    23    16    1
@<TRIPOS>MOLECULE
*****
 23 26 0 0 0
SMALL
GASTEIGER

@<TRIPOS>ATOM
      1 C          62.0400   89.8004   11.7439 C.2     1  UNL1        0.3425
      2 O          61.5688   89.5643   13.1482 O.2     1  UNL1       -0.2448
      3 C          66.1353   92.9549   12.5112 C.2     1  UNL1        0.1425
      4 C          66.3810   92.6146   13.9512 C.2     1  UNL1        0.0347
      5 C          65.5053   91.6140   14.6454 C.2     1  UNL1        0.0026
      6 C          64.3838   90.9537   13.8996 C.2     1  UNL1       -0.0016
      7 C          64.1381   91.2940   12.4595 C.2     1  UNL1        0.0148
      8 C          63.1168   90.8091   11.4737 C.2     1  UNL1        0.0926
      9 C          63.3613   91.5100   10.1703 C.2     1  UNL1        0.1001
     10 N          64.5338   92.4280   10.3505 N.2     1  UNL1       -0.2585
     11 C          65.0139   92.2946   11.7653 C.3     1  UNL1        0.1818
     12 C          66.4198   95.2256   11.2813 C.3     1  UNL1        0.2521
     13 O          67.0111   93.9555   11.8170 O.2     1  UNL1       -0.4734
     14 O          61.4345   89.0276   10.6098 O.3     1  UNL1       -0.4454
     15 C          60.9178   87.6384   10.8402 C.3     1  UNL1        0.2087
     16 C          61.7678   86.4540   10.4871 C.3     1  UNL1        0.0445
     17 C          62.2920   86.2967    9.0905 C.3     1  UNL1        0.0210
     18 C          63.1420   85.1123    8.7375 C.3     1  UNL1        0.0722
     19 N          63.4679   84.0851    9.7810 N.3     1  UNL1       -0.2727
     20 C          62.9437   84.2424   11.1776 C.3     1  UNL1        0.0722
     21 C          62.0936   85.4269   11.5306 C.3     1  UNL1        0.0210
     22 C          62.9983   84.7172   10.0218 C.3     1  UNL1        0.0722
     23 C          62.2297   85.7881   10.3411 C.3     1  UNL1        0.0210
@<TRIPOS>BOND
     1    12    13    1
     2    13     3    1
     3     3     4    2
     4     4     5    1
     5     5     6    2
     6     6     7    1
     7     7     8    2
     8     8     1    1
     9     1     2    2
    10     1    14    1
    11    14    15    1
    12    15    16    1
    13    16    17    1
    14    17    18    1
    15    18    19    1
    16    19    20    1
    17    20    21    1
    18    19    22    1
    19    22    23    1
    20     8     9    1
    21     9    10    2
    22    10    11    1
    23    11     3    1
    24    11     7    1
    25    21    16    1
    26    23    16    1
@<TRIPOS>MOLECULE
*****
 23 26 0 0 0
SMALL
GASTEIGER

@<TRIPOS>ATOM
      1 C          63.9864   87.6962   13.8767 C.2     1  UNL1        0.3425
      2 O          63.3932   88.2024   12.5954 O.2     1  UNL1       -0.2448
      3 C          63.2137   82.5568   13.3288 C.2     1  UNL1        0.1425
      4 C          62.7297   82.5790   11.9092 C.2     1  UNL1        0.0347
      5 C          62.6256   83.8815   11.1726 C.2     1  UNL1        0.0026
      6 C          63.0053   85.1618   11.8556 C.2     1  UNL1       -0.0016
      7 C          63.4893   85.1396   13.2752 C.2     1  UNL1        0.0148
      8 C          63.9313   86.2330   14.2021 C.2     1  UNL1        0.0926
      9 C          64.3087   85.6062   15.5116 C.2     1  UNL1        0.1001
     10 N          64.0999   84.1255   15.3940 N.2     1  UNL1       -0.2585
     11 C          63.5934   83.8371   14.0118 C.3     1  UNL1        0.1818
     12 C          62.4181   80.1114   13.6990 C.3     1  UNL1        0.2521
     13 O          63.3178   81.2543   14.0654 O.2     1  UNL1       -0.4734
     14 O          64.6347   88.6533   14.8326 O.3     1  UNL1       -0.4454
     15 C          64.2831   90.1109   14.7886 C.3     1  UNL1        0.2087
     16 C          65.1916   91.0807   14.0929 C.3     1  UNL1        0.0445
     17 C          66.5270   91.4164   14.6877 C.3     1  UNL1        0.0210
     18 C          67.4355   92.3863   13.9920 C.3     1  UNL1        0.0722
     19 N          67.0085   93.0205   12.7014 N.3     1  UNL1       -0.2727
     20 C          65.6730   92.6848   12.1066 C.3     1  UNL1        0.0722
     21 C          64.7645   91.7149   12.8024 C.3     1  UNL1        0.0210
     22 C          66.4766   92.4949   13.0461 C.3     1  UNL1        0.0722
     23 C          65.6551   91.6180   13.6751 C.3     1  UNL1        0.0210
@<TRIPOS>BOND
     1    12    13    1
     2    13     3    1
     3     3     4    2
     4     4     5    1
     5     5     6    2
     6     6     7    1
     7     7     8    2
     8     8     1    1
     9     1     2    2
    10     1    14    1
    11    14    15    1
    12    15    16    1
    13    16    17    1
    14    17    18    1
    15    18    19    1
    16    19    20    1
    17    20    21    1
    18    19    22    1
    19    22    23    1
    20     8     9    1
    21     9    10    2
    22    10    11    1
    23    11     3    1
    24    11     7    1
    25    21    16    1
    26    23    16    1
@<TRIPOS>MOLECULE
*****
 23 26 0 0 0
SMALL
GASTEIGER

@<TRIPOS>ATOM
      1 C          62.3320   89.9128   12.8069 C.2     1  UNL1        0.3425
      2 O          62.3634   89.7456   14.2971 O.2     1  UNL1       -0.2448
      3 C          66.4622   93.0325   12.0864 C.2     1  UNL1        0.1425
      4 C          67.0326   92.9295   13.4698 C.2     1  UNL1        0.0347
      5 C          66.3480   92.0837   14.5023 C.2     1  UNL1        0.0026
      6 C          65.0930   91.3409   14.1513 C.2     1  UNL1       -0.0016
      7 C          64.5226   91.4440   12.7678 C.2     1  UNL1        0.0148
      8 C          63.3088   90.8314   12.1344 C.2     1  UNL1        0.0926
      9 C          63.2431   91.2985   10.7105 C.2     1  UNL1        0.1001
     10 N          64.4164   92.1999   10.4639 N.2     1  UNL1       -0.2585
     11 C          65.2072   92.2898   11.7354 C.3     1  UNL1        0.1818
     12 C          67.6323   93.2576    9.7777 C.3     1  UNL1        0.2521
     13 O          67.1468   93.8783   11.0539 O.2     1  UNL1       -0.4734
     14 O          61.3237   89.1614   11.9890 O.3     1  UNL1       -0.4454
     15 C          61.7792   88.1317   10.9978 C.3     1  UNL1        0.2087
     16 C          60.9626   87.8607    9.7692 C.3     1  UNL1        0.0445
     17 C          60.7455   86.4496    9.3091 C.3     1  UNL1        0.0210
     18 C          59.9289   86.1787    8.0804 C.3     1  UNL1        0.0722
     19 N          59.3294   87.3188    7.3117 N.3     1  UNL1       -0.2727
     20 C          59.5465   88.7298    7.7718 C.3     1  UNL1        0.0722
     21 C          60.3631   89.0008    9.0006 C.3     1  UNL1        0.0210
     22 C          59.7694   87.5167    7.9790 C.3     1  UNL1        0.0722
     23 C          60.5078   87.7618    9.0900 C.3     1  UNL1        0.0210
@<TRIPOS>BOND
     1    12    13    1
     2    13     3    1
     3     3     4    2
     4     4     5    1
     5     5     6    2
     6     6     7    1
     7     7     8    2
     8     8     1    1
     9     1     2    2
    10     1    14    1
    11    14    15    1
    12    15    16    1
    13    16    17    1
    14    17    18    1
    15    18    19    1
    16    19    20    1
    17    20    21    1
    18    19    22    1
    19    22    23    1
    20     8     9    1
    21     9    10    2
    22    10    11    1
    23    11     3    1
    24    11     7    1
    25    21    16    1
    26    23    16    1
