@<TRIPOS>MOLECULE
*****
 28 30 0 0 0
SMALL
GASTEIGER

@<TRIPOS>ATOM
      1 C          65.8340   91.7230   13.8126 C.3     1  UNL1        0.0378
      2 C          65.3546   91.4399   15.2054 C.3     1  UNL1        0.0075
      3 C          64.1123   90.6272   15.4203 C.3     1  UNL1        0.0219
      4 C          63.3493   90.0977   14.2424 C.3     1  UNL1        0.0950
      5 N          63.8286   90.3809   12.8496 N.am    1  UNL1       -0.2637
      6 C          63.0656   89.8514   11.6716 C.2     1  UNL1        0.3077
      7 O          63.5450   90.1345   10.2788 O.2     1  UNL1       -0.2522
      8 N          61.8233   89.0387   11.8866 N.am    1  UNL1       -0.2681
      9 C          65.0710   91.1935   12.6346 C.3     1  UNL1        0.0989
     10 H          61.5087   88.8529   12.8008 H       1  UNL1        0.1564
     11 C          61.0604   88.5093   10.7086 C.ar    1  UNL1        0.0516
     12 C          60.3630   89.4578    9.7790 C.ar    1  UNL1        0.0156
     13 C          59.6001   88.9285    8.6011 C.ar    1  UNL1        0.0127
     14 C          59.5345   87.4506    8.3527 C.ar    1  UNL1        0.0578
     15 CL         58.7715   86.9212    7.1746 Cl      1  UNL1       -0.0822
     16 C          60.2317   86.5021    9.2823 C.ar    1  UNL1        0.0127
     17 C          60.9947   87.0315   10.4603 C.ar    1  UNL1        0.0156
     18 C          66.8910   92.4369   14.6020 C.ar    1  UNL1       -0.0181
     19 C          67.8471   91.6556   15.4536 C.ar    1  UNL1        0.0164
     20 C          68.9040   92.3696   16.2429 C.ar    1  UNL1        0.0986
     21 N          69.0048   93.8649   16.1806 N.ar    1  UNL1       -0.2423
     22 C          68.0487   94.6462   15.3290 C.ar    1  UNL1        0.0986
     23 C          66.9918   93.9323   14.5397 C.ar    1  UNL1        0.0164
     24 C          66.6804   92.2541   12.6938 C.3     1  UNL1        0.0116
     25 C          66.0441   92.6491   11.3943 C.3     1  UNL1        0.0421
     26 O          65.5208   95.0439   10.5336 O.co2   1  UNL1       -0.5492
     27 C          66.4806   93.9028   10.6959 C.2     1  UNL1        0.0503
     28 O          67.8771   94.0152   10.1598 O.co2   1  UNL1       -0.5492
@<TRIPOS>UNITY_ATOM_ATTR
26 1
charge -1
@<TRIPOS>BOND
     1    26    27   ar
     2    27    28   ar
     3    27    25    1
     4    25    24    1
     5    24     1    1
     6     1    18    1
     7    18    19   ar
     8    19    20   ar
     9    20    21   ar
    10    21    22   ar
    11    22    23   ar
    12     1     2    1
    13     2     3    1
    14     3     4    1
    15     4     5    1
    16     5     6   am
    17     6     7    2
    18     6     8   am
    19     8    11    1
    20    11    12   ar
    21    12    13   ar
    22    13    14   ar
    23    14    15    1
    24    14    16   ar
    25    16    17   ar
    26     5     9    1
    27     9     1    1
    28    23    18   ar
    29    17    11   ar
    30     8    10    1
@<TRIPOS>MOLECULE
*****
 28 30 0 0 0
SMALL
GASTEIGER

@<TRIPOS>ATOM
      1 C          65.6610   91.6869   13.4431 C.3     1  UNL1        0.0378
      2 C          66.0883   92.8346   12.5770 C.3     1  UNL1        0.0075
      3 C          65.4808   93.0149   11.2174 C.3     1  UNL1        0.0219
      4 C          64.4460   92.0475   10.7240 C.3     1  UNL1        0.0950
      5 N          64.0188   90.8998   11.5902 N.am    1  UNL1       -0.2637
      6 C          62.9840   89.9324   11.0968 C.2     1  UNL1        0.3077
      7 O          62.5568   88.7847   11.9630 O.2     1  UNL1       -0.2522
      8 N          62.3765   90.1127    9.7372 N.am    1  UNL1       -0.2681
      9 C          64.6263   90.7195   12.9497 C.3     1  UNL1        0.0989
     10 H          62.6569   90.8660    9.1687 H       1  UNL1        0.1564
     11 C          61.3418   89.1453    9.2439 C.ar    1  UNL1        0.0516
     12 C          60.1918   89.6353    8.4146 C.ar    1  UNL1        0.0156
     13 C          59.1571   88.6680    7.9213 C.ar    1  UNL1        0.0127
     14 C          59.2722   87.2106    8.2572 C.ar    1  UNL1        0.0578
     15 CL         58.2374   86.2432    7.7638 Cl      1  UNL1       -0.0822
     16 C          60.4221   86.7205    9.0864 C.ar    1  UNL1        0.0127
     17 C          61.4569   87.6880    9.5797 C.ar    1  UNL1        0.0156
     18 C          66.6690   92.3338   14.3463 C.ar    1  UNL1       -0.0181
     19 C          67.5352   91.4874   15.2314 C.ar    1  UNL1        0.0164
     20 C          68.5431   92.1343   16.1345 C.ar    1  UNL1        0.0986
     21 N          68.6848   93.6275   16.1526 N.ar    1  UNL1       -0.2423
     22 C          67.8186   94.4738   15.2675 C.ar    1  UNL1        0.0986
     23 C          66.8107   93.8270   14.3644 C.ar    1  UNL1        0.0164
     24 C          65.5839   90.7639   14.6230 C.3     1  UNL1        0.0116
     25 C          64.3609   89.9226   14.8383 C.3     1  UNL1        0.0421
     26 O          62.3015   89.3148   16.3011 O.co2   1  UNL1       -0.5492
     27 C          63.3874   90.2779   15.9229 C.2     1  UNL1        0.0503
     28 O          63.5001   91.5965   16.6291 O.co2   1  UNL1       -0.5492
@<TRIPOS>UNITY_ATOM_ATTR
26 1
charge -1
@<TRIPOS>BOND
     1    26    27   ar
     2    27    28   ar
     3    27    25    1
     4    25    24    1
     5    24     1    1
     6     1    18    1
     7    18    19   ar
     8    19    20   ar
     9    20    21   ar
    10    21    22   ar
    11    22    23   ar
    12     1     2    1
    13     2     3    1
    14     3     4    1
    15     4     5    1
    16     5     6   am
    17     6     7    2
    18     6     8   am
    19     8    11    1
    20    11    12   ar
    21    12    13   ar
    22    13    14   ar
    23    14    15    1
    24    14    16   ar
    25    16    17   ar
    26     5     9    1
    27     9     1    1
    28    23    18   ar
    29    17    11   ar
    30     8    10    1
@<TRIPOS>MOLECULE
*****
 28 30 0 0 0
SMALL
GASTEIGER

@<TRIPOS>ATOM
      1 C          63.9587   88.1249   14.6466 C.3     1  UNL1        0.0378
      2 C          63.8588   87.8867   16.1242 C.3     1  UNL1        0.0075
      3 C          63.6204   86.5008   16.6460 C.3     1  UNL1        0.0219
      4 C          63.4818   85.3530   15.6902 C.3     1  UNL1        0.0950
      5 N          63.5816   85.5912   14.2126 N.am    1  UNL1       -0.2637
      6 C          63.4431   84.4435   13.2568 C.2     1  UNL1        0.3077
      7 O          63.5429   84.6818   11.7793 O.2     1  UNL1       -0.2522
      8 N          63.2046   83.0576   13.7787 N.am    1  UNL1       -0.2681
      9 C          63.8201   86.9772   13.6908 C.3     1  UNL1        0.0989
     10 H          63.1391   82.9012   14.7485 H       1  UNL1        0.1564
     11 C          63.0661   81.9099   12.8229 C.ar    1  UNL1        0.0516
     12 C          62.6019   80.5725   13.3191 C.ar    1  UNL1        0.0156
     13 C          62.4633   79.4249   12.3633 C.ar    1  UNL1        0.0127
     14 C          62.7888   79.6144   10.9113 C.ar    1  UNL1        0.0578
     15 CL         62.6502   78.4667    9.9555 Cl      1  UNL1       -0.0822
     16 C          63.2529   80.9517   10.4152 C.ar    1  UNL1        0.0127
     17 C          63.3915   82.0995   11.3710 C.ar    1  UNL1        0.0156
     18 C          64.1557   89.5242   15.1499 C.ar    1  UNL1       -0.0181
     19 C          65.1999   90.4044   14.5295 C.ar    1  UNL1        0.0164
     20 C          65.3969   91.8036   15.0328 C.ar    1  UNL1        0.0986
     21 N          64.5497   92.3226   16.1566 N.ar    1  UNL1       -0.2423
     22 C          63.5055   91.4425   16.7770 C.ar    1  UNL1        0.0986
     23 C          63.3085   90.0433   16.2737 C.ar    1  UNL1        0.0164
     24 C          64.1270   88.8491   13.3438 C.3     1  UNL1        0.0116
     25 C          63.1557   88.6154   12.2249 C.3     1  UNL1        0.0421
     26 O          60.7434   89.5368   12.5103 O.co2   1  UNL1       -0.5492
     27 C          62.1132   89.6465   11.9090 C.2     1  UNL1        0.0503
     28 O          62.4405   90.7874   10.9917 O.co2   1  UNL1       -0.5492
@<TRIPOS>UNITY_ATOM_ATTR
26 1
charge -1
@<TRIPOS>BOND
     1    26    27   ar
     2    27    28   ar
     3    27    25    1
     4    25    24    1
     5    24     1    1
     6     1    18    1
     7    18    19   ar
     8    19    20   ar
     9    20    21   ar
    10    21    22   ar
    11    22    23   ar
    12     1     2    1
    13     2     3    1
    14     3     4    1
    15     4     5    1
    16     5     6   am
    17     6     7    2
    18     6     8   am
    19     8    11    1
    20    11    12   ar
    21    12    13   ar
    22    13    14   ar
    23    14    15    1
    24    14    16   ar
    25    16    17   ar
    26     5     9    1
    27     9     1    1
    28    23    18   ar
    29    17    11   ar
    30     8    10    1
@<TRIPOS>MOLECULE
*****
 28 30 0 0 0
SMALL
GASTEIGER

@<TRIPOS>ATOM
      1 C          63.8515   87.7782   14.2281 C.3     1  UNL1        0.0378
      2 C          63.4001   88.6334   13.0814 C.3     1  UNL1        0.0075
      3 C          62.9249   87.9939   11.8105 C.3     1  UNL1        0.0219
      4 C          62.9011   86.4992   11.6863 C.3     1  UNL1        0.0950
      5 N          63.3524   85.6441   12.8330 N.am    1  UNL1       -0.2637
      6 C          63.3286   84.1494   12.7088 C.2     1  UNL1        0.3077
      7 O          63.7800   83.2943   13.8556 O.2     1  UNL1       -0.2522
      8 N          62.8534   83.5099   11.4379 N.am    1  UNL1       -0.2681
      9 C          63.8277   86.2835   14.1039 C.3     1  UNL1        0.0989
     10 H          62.5572   84.0711   10.6853 H       1  UNL1        0.1564
     11 C          62.8296   82.0152   11.3138 C.ar    1  UNL1        0.0516
     12 C          62.4973   81.1688   12.5069 C.ar    1  UNL1        0.0156
     13 C          62.4735   79.6743   12.3828 C.ar    1  UNL1        0.0127
     14 C          62.7820   79.0259   11.0658 C.ar    1  UNL1        0.0578
     15 CL         62.7582   77.5312   10.9418 Cl      1  UNL1       -0.0822
     16 C          63.1143   79.8722    9.8728 C.ar    1  UNL1        0.0127
     17 C          63.1382   81.3669    9.9969 C.ar    1  UNL1        0.0156
     18 C          64.0568   89.1402   14.8222 C.ar    1  UNL1       -0.0181
     19 C          65.0433   90.0867   14.2051 C.ar    1  UNL1        0.0164
     20 C          65.2487   91.4486   14.7992 C.ar    1  UNL1        0.0986
     21 N          64.4675   91.8640   16.0105 N.ar    1  UNL1       -0.2423
     22 C          63.4810   90.9175   16.6277 C.ar    1  UNL1        0.0986
     23 C          63.2757   89.5556   16.0335 C.ar    1  UNL1        0.0164
     24 C          64.3742   87.3961   15.5812 C.3     1  UNL1        0.0116
     25 C          63.8318   86.1848   16.2801 C.3     1  UNL1        0.0421
     26 O          62.8894   86.8109   18.6189 O.co2   1  UNL1       -0.5492
     27 C          62.6697   86.3183   17.2192 C.2     1  UNL1        0.0503
     28 O          61.2881   85.9591   16.7586 O.co2   1  UNL1       -0.5492
@<TRIPOS>UNITY_ATOM_ATTR
26 1
charge -1
@<TRIPOS>BOND
     1    26    27   ar
     2    27    28   ar
     3    27    25    1
     4    25    24    1
     5    24     1    1
     6     1    18    1
     7    18    19   ar
     8    19    20   ar
     9    20    21   ar
    10    21    22   ar
    11    22    23   ar
    12     1     2    1
    13     2     3    1
    14     3     4    1
    15     4     5    1
    16     5     6   am
    17     6     7    2
    18     6     8   am
    19     8    11    1
    20    11    12   ar
    21    12    13   ar
    22    13    14   ar
    23    14    15    1
    24    14    16   ar
    25    16    17   ar
    26     5     9    1
    27     9     1    1
    28    23    18   ar
    29    17    11   ar
    30     8    10    1
@<TRIPOS>MOLECULE
*****
 28 30 0 0 0
SMALL
GASTEIGER

@<TRIPOS>ATOM
      1 C          63.3387   83.3361   12.3262 C.3     1  UNL1        0.0378
      2 C          62.5569   83.6149   11.0768 C.3     1  UNL1        0.0075
      3 C          62.2144   85.0274   10.7059 C.3     1  UNL1        0.0219
      4 C          62.6537   86.1611   11.5844 C.3     1  UNL1        0.0950
      5 N          63.4355   85.8823   12.8338 N.am    1  UNL1       -0.2637
      6 C          63.8749   87.0160   13.7123 C.2     1  UNL1        0.3077
      7 O          64.6567   86.7371   14.9617 O.2     1  UNL1       -0.2522
      8 N          63.5323   88.4285   13.3414 N.am    1  UNL1       -0.2681
      9 C          63.7781   84.4698   13.2047 C.3     1  UNL1        0.0989
     10 H          63.0192   88.6115   12.5214 H       1  UNL1        0.1564
     11 C          63.9717   89.5621   14.2199 C.ar    1  UNL1        0.0516
     12 C          63.3290   89.7649   15.5601 C.ar    1  UNL1        0.0156
     13 C          63.7683   90.8984   16.4386 C.ar    1  UNL1        0.0127
     14 C          64.8503   91.8293   15.9771 C.ar    1  UNL1        0.0578
     15 CL         65.2896   92.9629   16.8558 Cl      1  UNL1       -0.0822
     16 C          65.4929   91.6265   14.6371 C.ar    1  UNL1        0.0127
     17 C          65.0536   90.4929   13.7584 C.ar    1  UNL1        0.0156
     18 C          63.1479   81.9368   11.8206 C.ar    1  UNL1       -0.0181
     19 C          62.7225   80.8503   12.7632 C.ar    1  UNL1        0.0164
     20 C          62.5317   79.4510   12.2576 C.ar    1  UNL1        0.0986
     21 N          62.7664   79.1383   10.8095 N.ar    1  UNL1       -0.2423
     22 C          63.1918   80.2248    9.8669 C.ar    1  UNL1        0.0986
     23 C          63.3826   81.6240   10.3725 C.ar    1  UNL1        0.0164
     24 C          64.0543   82.5713   13.4000 C.3     1  UNL1        0.0116
     25 C          63.9595   83.0178   14.8289 C.3     1  UNL1        0.0421
     26 O          62.4871   84.4856   16.3870 O.co2   1  UNL1       -0.5492
     27 C          62.6222   83.3416   15.4263 C.2     1  UNL1        0.0503
     28 O          61.4201   82.5213   15.0630 O.co2   1  UNL1       -0.5492
@<TRIPOS>UNITY_ATOM_ATTR
26 1
charge -1
@<TRIPOS>BOND
     1    26    27   ar
     2    27    28   ar
     3    27    25    1
     4    25    24    1
     5    24     1    1
     6     1    18    1
     7    18    19   ar
     8    19    20   ar
     9    20    21   ar
    10    21    22   ar
    11    22    23   ar
    12     1     2    1
    13     2     3    1
    14     3     4    1
    15     4     5    1
    16     5     6   am
    17     6     7    2
    18     6     8   am
    19     8    11    1
    20    11    12   ar
    21    12    13   ar
    22    13    14   ar
    23    14    15    1
    24    14    16   ar
    25    16    17   ar
    26     5     9    1
    27     9     1    1
    28    23    18   ar
    29    17    11   ar
    30     8    10    1
@<TRIPOS>MOLECULE
*****
 28 30 0 0 0
SMALL
GASTEIGER

@<TRIPOS>ATOM
      1 C          55.9591   94.9921   -3.3199 C.3     1  UNL1        0.0378
      2 C          55.5713   96.3349   -2.7755 C.3     1  UNL1        0.0075
      3 C          56.2238   96.8559   -1.5295 C.3     1  UNL1        0.0219
      4 C          57.2642   96.0341   -0.8278 C.3     1  UNL1        0.0950
      5 N          57.6520   94.6913   -1.3721 N.am    1  UNL1       -0.2637
      6 C          58.6924   93.8695   -0.6704 C.2     1  UNL1        0.3077
      7 O          59.0801   92.5267   -1.2149 O.2     1  UNL1       -0.2522
      8 N          59.3448   94.3906    0.5757 N.am    1  UNL1       -0.2681
      9 C          56.9995   94.1703   -2.6182 C.3     1  UNL1        0.0989
     10 H          59.0903   95.2720    0.9330 H       1  UNL1        0.1564
     11 C          60.3852   93.5688    1.2773 C.ar    1  UNL1        0.0516
     12 C          60.0868   92.9677    2.6189 C.ar    1  UNL1        0.0156
     13 C          61.1270   92.1459    3.3205 C.ar    1  UNL1        0.0127
     14 C          62.4657   91.9251    2.6807 C.ar    1  UNL1        0.0578
     15 CL         63.5060   91.1032    3.3824 Cl      1  UNL1       -0.0822
     16 C          62.7640   92.5261    1.3392 C.ar    1  UNL1        0.0127
     17 C          61.7237   93.3480    0.6375 C.ar    1  UNL1        0.0156
     18 C          54.9292   95.3962   -4.3329 C.ar    1  UNL1       -0.0181
     19 C          53.5970   95.9168   -3.8813 C.ar    1  UNL1        0.0164
     20 C          52.5672   96.3210   -4.8943 C.ar    1  UNL1        0.0986
     21 N          52.8696   96.2045   -6.3588 N.ar    1  UNL1       -0.2423
     22 C          54.2019   95.6838   -6.8104 C.ar    1  UNL1        0.0986
     23 C          55.2317   95.2797   -5.7975 C.ar    1  UNL1        0.0164
     24 C          55.9893   93.7896   -4.2161 C.3     1  UNL1        0.0116
     25 C          56.2765   92.4337   -3.6425 C.3     1  UNL1        0.0421
     26 O          55.3601   90.0192   -3.9259 O.co2   1  UNL1       -0.5492
     27 C          56.0855   91.2072   -4.4847 C.2     1  UNL1        0.0503
     28 O          56.6201   91.1688   -5.8857 O.co2   1  UNL1       -0.5492
@<TRIPOS>UNITY_ATOM_ATTR
26 1
charge -1
@<TRIPOS>BOND
     1    26    27   ar
     2    27    28   ar
     3    27    25    1
     4    25    24    1
     5    24     1    1
     6     1    18    1
     7    18    19   ar
     8    19    20   ar
     9    20    21   ar
    10    21    22   ar
    11    22    23   ar
    12     1     2    1
    13     2     3    1
    14     3     4    1
    15     4     5    1
    16     5     6   am
    17     6     7    2
    18     6     8   am
    19     8    11    1
    20    11    12   ar
    21    12    13   ar
    22    13    14   ar
    23    14    15    1
    24    14    16   ar
    25    16    17   ar
    26     5     9    1
    27     9     1    1
    28    23    18   ar
    29    17    11   ar
    30     8    10    1
@<TRIPOS>MOLECULE
*****
 28 30 0 0 0
SMALL
GASTEIGER

@<TRIPOS>ATOM
      1 C          61.7381   88.2198   10.0974 C.3     1  UNL1        0.0378
      2 C          61.2804   89.3278    9.1959 C.3     1  UNL1        0.0075
      3 C          61.7897   90.7232    9.4045 C.3     1  UNL1        0.0219
      4 C          62.7567   91.0105   10.5147 C.3     1  UNL1        0.0950
      5 N          63.2144   89.9024   11.4161 N.am    1  UNL1       -0.2637
      6 C          64.1814   90.1897   12.5263 C.2     1  UNL1        0.3077
      7 O          64.6391   89.0816   13.4277 O.2     1  UNL1       -0.2522
      8 N          64.6907   91.5851   12.7349 N.am    1  UNL1       -0.2681
      9 C          62.7051   88.5071   11.2075 C.3     1  UNL1        0.0989
     10 H          64.3903   92.3124   12.1433 H       1  UNL1        0.1564
     11 C          65.6577   91.8723   13.8451 C.ar    1  UNL1        0.0516
     12 C          67.1306   91.9152   13.5643 C.ar    1  UNL1        0.0156
     13 C          68.0976   92.2024   14.6743 C.ar    1  UNL1        0.0127
     14 C          67.5918   92.4468   16.0652 C.ar    1  UNL1        0.0578
     15 CL         68.5589   92.7340   17.1754 Cl      1  UNL1       -0.0822
     16 C          66.1189   92.4039   16.3460 C.ar    1  UNL1        0.0127
     17 C          65.1519   92.1167   15.2359 C.ar    1  UNL1        0.0156
     18 C          60.8193   87.4554    9.1910 C.ar    1  UNL1       -0.0181
     19 C          59.3999   87.9052    9.0093 C.ar    1  UNL1        0.0164
     20 C          58.4811   87.1409    8.1029 C.ar    1  UNL1        0.0986
     21 N          58.9817   85.9267    7.3783 N.ar    1  UNL1       -0.2423
     22 C          60.4010   85.4768    7.5600 C.ar    1  UNL1        0.0986
     23 C          61.3198   86.2412    8.4663 C.ar    1  UNL1        0.0164
     24 C          61.8767   86.8462   10.6841 C.3     1  UNL1        0.0116
     25 C          62.7254   86.6332   11.9024 C.3     1  UNL1        0.0421
     26 O          62.7212   84.9999   13.9229 O.co2   1  UNL1       -0.5492
     27 C          62.9093   85.2512   12.4561 C.2     1  UNL1        0.0503
     28 O          63.2812   84.1208   11.5430 O.co2   1  UNL1       -0.5492
@<TRIPOS>UNITY_ATOM_ATTR
26 1
charge -1
@<TRIPOS>BOND
     1    26    27   ar
     2    27    28   ar
     3    27    25    1
     4    25    24    1
     5    24     1    1
     6     1    18    1
     7    18    19   ar
     8    19    20   ar
     9    20    21   ar
    10    21    22   ar
    11    22    23   ar
    12     1     2    1
    13     2     3    1
    14     3     4    1
    15     4     5    1
    16     5     6   am
    17     6     7    2
    18     6     8   am
    19     8    11    1
    20    11    12   ar
    21    12    13   ar
    22    13    14   ar
    23    14    15    1
    24    14    16   ar
    25    16    17   ar
    26     5     9    1
    27     9     1    1
    28    23    18   ar
    29    17    11   ar
    30     8    10    1
@<TRIPOS>MOLECULE
*****
 28 30 0 0 0
SMALL
GASTEIGER

@<TRIPOS>ATOM
      1 C          64.0706   95.1783   -3.6297 C.3     1  UNL1        0.0378
      2 C          65.0393   96.2128   -3.1383 C.3     1  UNL1        0.0075
      3 C          65.2192   96.4321   -1.6654 C.3     1  UNL1        0.0219
      4 C          64.4304   95.6170   -0.6838 C.3     1  UNL1        0.0950
      5 N          63.4618   94.5825   -1.1752 N.am    1  UNL1       -0.2637
      6 C          62.6730   93.7674   -0.1937 C.2     1  UNL1        0.3077
      7 O          61.7043   92.7329   -0.6851 O.2     1  UNL1       -0.2522
      8 N          62.8529   93.9867    1.2793 N.am    1  UNL1       -0.2681
      9 C          63.2818   94.3632   -2.6481 C.3     1  UNL1        0.0989
     10 H          63.4887   94.6657    1.6018 H       1  UNL1        0.1564
     11 C          62.0641   93.1716    2.2607 C.ar    1  UNL1        0.0516
     12 C          60.6340   93.5214    2.5481 C.ar    1  UNL1        0.0156
     13 C          59.8452   92.7063    3.5294 C.ar    1  UNL1        0.0127
     14 C          60.4864   91.5413    4.2236 C.ar    1  UNL1        0.0578
     15 CL         59.6975   90.7262    5.2051 Cl      1  UNL1       -0.0822
     16 C          61.9164   91.1915    3.9363 C.ar    1  UNL1        0.0127
     17 C          62.7053   92.0067    2.9548 C.ar    1  UNL1        0.0156
     18 C          64.5850   95.6967   -4.9400 C.ar    1  UNL1       -0.0181
     19 C          66.0423   95.5764   -5.2741 C.ar    1  UNL1        0.0164
     20 C          66.5566   96.0947   -6.5843 C.ar    1  UNL1        0.0986
     21 N          65.6136   96.7335   -7.5604 N.ar    1  UNL1       -0.2423
     22 C          64.1562   96.8538   -7.2263 C.ar    1  UNL1        0.0986
     23 C          63.6419   96.3355   -5.9160 C.ar    1  UNL1        0.0164
     24 C          63.2805   94.3239   -4.5761 C.3     1  UNL1        0.0116
     25 C          63.6042   92.8663   -4.7191 C.3     1  UNL1        0.0421
     26 O          65.8746   91.9719   -5.6109 O.co2   1  UNL1       -0.5492
     27 C          64.4575   92.3959   -5.8597 C.2     1  UNL1        0.0503
     28 O          63.8935   92.3495   -7.2488 O.co2   1  UNL1       -0.5492
@<TRIPOS>UNITY_ATOM_ATTR
26 1
charge -1
@<TRIPOS>BOND
     1    26    27   ar
     2    27    28   ar
     3    27    25    1
     4    25    24    1
     5    24     1    1
     6     1    18    1
     7    18    19   ar
     8    19    20   ar
     9    20    21   ar
    10    21    22   ar
    11    22    23   ar
    12     1     2    1
    13     2     3    1
    14     3     4    1
    15     4     5    1
    16     5     6   am
    17     6     7    2
    18     6     8   am
    19     8    11    1
    20    11    12   ar
    21    12    13   ar
    22    13    14   ar
    23    14    15    1
    24    14    16   ar
    25    16    17   ar
    26     5     9    1
    27     9     1    1
    28    23    18   ar
    29    17    11   ar
    30     8    10    1
@<TRIPOS>MOLECULE
*****
 28 30 0 0 0
SMALL
GASTEIGER

@<TRIPOS>ATOM
      1 C          63.8212   94.4511   -2.9353 C.3     1  UNL1        0.0378
      2 C          64.8765   95.3833   -2.4185 C.3     1  UNL1        0.0075
      3 C          65.0376   95.5888   -0.9414 C.3     1  UNL1        0.0219
      4 C          64.1433   94.8621    0.0189 C.3     1  UNL1        0.0950
      5 N          63.0879   93.9299   -0.4979 N.am    1  UNL1       -0.2637
      6 C          62.1936   93.2032    0.4623 C.2     1  UNL1        0.3077
      7 O          61.1382   92.2710   -0.0546 O.2     1  UNL1       -0.2522
      8 N          62.3547   93.4087    1.9394 N.am    1  UNL1       -0.2681
      9 C          62.9268   93.7244   -1.9750 C.3     1  UNL1        0.0989
     10 H          63.0474   94.0205    2.2787 H       1  UNL1        0.1564
     11 C          61.4603   92.6819    2.8996 C.ar    1  UNL1        0.0516
     12 C          62.0025   91.5471    3.7173 C.ar    1  UNL1        0.0156
     13 C          61.1083   90.8204    4.6774 C.ar    1  UNL1        0.0127
     14 C          59.6718   91.2283    4.8200 C.ar    1  UNL1        0.0578
     15 CL         58.7775   90.5014    5.7802 Cl      1  UNL1       -0.0822
     16 C          59.1296   92.3630    4.0024 C.ar    1  UNL1        0.0127
     17 C          60.0240   93.0898    3.0422 C.ar    1  UNL1        0.0156
     18 C          64.4214   94.9094   -4.2314 C.ar    1  UNL1       -0.0181
     19 C          64.9691   93.9045   -5.2011 C.ar    1  UNL1        0.0164
     20 C          65.5692   94.3628   -6.4971 C.ar    1  UNL1        0.0986
     21 N          65.6216   95.8259   -6.8235 N.ar    1  UNL1       -0.2423
     22 C          65.0739   96.8308   -5.8539 C.ar    1  UNL1        0.0986
     23 C          64.4738   96.3725   -4.5578 C.ar    1  UNL1        0.0164
     24 C          62.9742   93.6781   -3.9023 C.3     1  UNL1        0.0116
     25 C          61.4853   93.8592   -3.9064 C.3     1  UNL1        0.0421
     26 O          59.5047   95.3527   -4.6790 O.co2   1  UNL1       -0.5492
     27 C          60.8373   94.7198   -4.9502 C.2     1  UNL1        0.0503
     28 O          61.5220   94.9475   -6.2653 O.co2   1  UNL1       -0.5492
@<TRIPOS>UNITY_ATOM_ATTR
26 1
charge -1
@<TRIPOS>BOND
     1    26    27   ar
     2    27    28   ar
     3    27    25    1
     4    25    24    1
     5    24     1    1
     6     1    18    1
     7    18    19   ar
     8    19    20   ar
     9    20    21   ar
    10    21    22   ar
    11    22    23   ar
    12     1     2    1
    13     2     3    1
    14     3     4    1
    15     4     5    1
    16     5     6   am
    17     6     7    2
    18     6     8   am
    19     8    11    1
    20    11    12   ar
    21    12    13   ar
    22    13    14   ar
    23    14    15    1
    24    14    16   ar
    25    16    17   ar
    26     5     9    1
    27     9     1    1
    28    23    18   ar
    29    17    11   ar
    30     8    10    1
