@<TRIPOS>MOLECULE
*****
 23 24 0 0 0
SMALL
GASTEIGER

@<TRIPOS>ATOM
      1 N          66.9195   93.5244   14.6622 N.am    1  UNL1       -0.2657
      2 C          66.4226   93.6737   13.2547 C.2     1  UNL1        0.3074
      3 O          66.8006   94.8818   12.4501 O.2     1  UNL1       -0.2523
      4 N          65.5478   92.6148   12.6520 N.am    1  UNL1       -0.2599
      5 C          64.9781   92.6264   11.2645 C.3     1  UNL1        0.0997
      6 C          64.1672   91.3771   11.0858 C.3     1  UNL1        0.0459
      7 C          64.2359   90.5934   12.3630 C.2     1  UNL1       -0.0145
      8 C          63.5685   89.2760   12.6261 C.2     1  UNL1        0.0428
      9 C          65.0891   91.3583   13.3309 C.3     1  UNL1        0.1181
     10 C          66.5415   92.3163   15.4668 C.3     1  UNL1        0.0769
     11 C          65.3752   92.3769   16.4081 C.3     1  UNL1        0.0216
     12 C          67.3299   91.0475   15.3301 C.3     1  UNL1        0.0216
     13 C          69.0337   94.1948   16.0152 C.3     1  UNL1        0.0233
     14 C          67.7943   94.5834   15.2650 C.3     1  UNL1        0.0949
     15 C          62.7413   88.6274   11.5559 C.1     1  UNL1       -0.0582
     16 C          61.9143   87.9788   10.4858 C.1     1  UNL1       -0.0405
     17 C          61.0871   87.3302    9.4156 C.ar    1  UNL1        0.1224
     18 C          59.6465   87.7121    9.2463 C.ar    1  UNL1        0.0276
     19 C          58.8195   87.0635    8.1761 C.ar    1  UNL1        0.0034
     20 C          59.4330   86.0330    7.2753 C.ar    1  UNL1        0.0148
     21 C          60.8736   85.6510    7.4446 C.ar    1  UNL1        0.0600
     22 C          61.4872   84.6204    6.5438 C.3     1  UNL1        0.0521
     23 N          61.7007   86.2996    8.5148 N.ar    1  UNL1       -0.2414
@<TRIPOS>BOND
     1    13    14    1
     2    14     1    1
     3     1     2   am
     4     2     3    2
     5     2     4   am
     6     4     5    1
     7     5     6    1
     8     6     7    1
     9     7     8    2
    10     8    15    1
    11    15    16    3
    12    16    17    1
    13    17    18   ar
    14    18    19   ar
    15    19    20   ar
    16    20    21   ar
    17    21    22    1
    18    21    23   ar
    19     7     9    1
    20     1    10    1
    21    10    11    1
    22    10    12    1
    23     9     4    1
    24    23    17   ar
@<TRIPOS>MOLECULE
*****
 23 24 0 0 0
SMALL
GASTEIGER

@<TRIPOS>ATOM
      1 N          61.3827   95.4342   -0.1819 N.am    1  UNL1       -0.2657
      2 C          62.3159   94.4244    0.4177 C.2     1  UNL1        0.3074
      3 O          63.7094   94.2798   -0.1182 O.2     1  UNL1       -0.2523
      4 N          61.8555   93.5591    1.5531 N.am    1  UNL1       -0.2599
      5 C          62.6717   92.5114    2.2503 C.3     1  UNL1        0.0997
      6 C          61.8188   91.8944    3.3189 C.3     1  UNL1        0.0459
      7 C          60.4754   92.5609    3.2822 C.2     1  UNL1       -0.0145
      8 C          59.3134   92.2526    4.1792 C.2     1  UNL1        0.0428
      9 C          60.4982   93.5897    2.1909 C.3     1  UNL1        0.1181
     10 C          59.9892   95.5787    0.3540 C.3     1  UNL1        0.0769
     11 C          59.7053   96.5632    1.4495 C.3     1  UNL1        0.0216
     12 C          58.8796   94.7387   -0.2056 C.3     1  UNL1        0.0216
     13 C          61.7167   95.8124   -2.7305 C.3     1  UNL1        0.0233
     14 C          61.8430   96.2994   -1.3174 C.3     1  UNL1        0.0949
     15 C          59.4393   91.1910    5.2315 C.1     1  UNL1       -0.0582
     16 C          59.5652   90.1295    6.2838 C.1     1  UNL1       -0.0405
     17 C          59.6910   89.0679    7.3361 C.ar    1  UNL1        0.1224
     18 C          59.1564   87.6902    7.0793 C.ar    1  UNL1        0.0276
     19 C          59.2823   86.6287    8.1316 C.ar    1  UNL1        0.0034
     20 C          59.9428   86.9449    9.4407 C.ar    1  UNL1        0.0148
     21 C          60.4774   88.3227    9.6975 C.ar    1  UNL1        0.0600
     22 C          61.1379   88.6389   11.0066 C.3     1  UNL1        0.0521
     23 N          60.3515   89.3841    8.6452 N.ar    1  UNL1       -0.2414
@<TRIPOS>BOND
     1    13    14    1
     2    14     1    1
     3     1     2   am
     4     2     3    2
     5     2     4   am
     6     4     5    1
     7     5     6    1
     8     6     7    1
     9     7     8    2
    10     8    15    1
    11    15    16    3
    12    16    17    1
    13    17    18   ar
    14    18    19   ar
    15    19    20   ar
    16    20    21   ar
    17    21    22    1
    18    21    23   ar
    19     7     9    1
    20     1    10    1
    21    10    11    1
    22    10    12    1
    23     9     4    1
    24    23    17   ar
@<TRIPOS>MOLECULE
*****
 23 24 0 0 0
SMALL
GASTEIGER

@<TRIPOS>ATOM
      1 N          63.7913   84.3430   12.9634 N.am    1  UNL1       -0.2657
      2 C          63.5148   85.8173   12.9567 C.2     1  UNL1        0.3074
      3 O          63.9801   86.6728   14.0975 O.2     1  UNL1       -0.2523
      4 N          62.7731   86.4359   11.8091 N.am    1  UNL1       -0.2599
      5 C          62.4254   87.8879   11.6642 C.3     1  UNL1        0.0997
      6 C          61.6863   88.0607   10.3704 C.3     1  UNL1        0.0459
      7 C          61.5773   86.7155    9.7156 C.2     1  UNL1       -0.0145
      8 C          60.9131   86.4254    8.4023 C.2     1  UNL1        0.0428
      9 C          62.2490   85.7114   10.6048 C.3     1  UNL1        0.1181
     10 C          63.3260   83.4874   11.8226 C.3     1  UNL1        0.0769
     11 C          62.0885   82.6521   11.9675 C.3     1  UNL1        0.0216
     12 C          64.0982   83.4672   10.5368 C.3     1  UNL1        0.0216
     13 C          63.7950   83.3309   15.3563 C.3     1  UNL1        0.0233
     14 C          64.5330   83.7242   14.1110 C.3     1  UNL1        0.0949
     15 C          60.2799   87.5378    7.6202 C.1     1  UNL1       -0.0582
     16 C          59.6466   88.6502    6.8382 C.1     1  UNL1       -0.0405
     17 C          59.0133   89.7626    6.0561 C.ar    1  UNL1        0.1224
     18 C          57.5236   89.9364    6.0711 C.ar    1  UNL1        0.0276
     19 C          56.8904   91.0488    5.2891 C.ar    1  UNL1        0.0034
     20 C          57.7470   91.9874    4.4920 C.ar    1  UNL1        0.0148
     21 C          59.2368   91.8135    4.4770 C.ar    1  UNL1        0.0600
     22 C          60.0934   92.7521    3.6799 C.3     1  UNL1        0.0521
     23 N          59.8699   90.7012    5.2590 N.ar    1  UNL1       -0.2414
@<TRIPOS>BOND
     1    13    14    1
     2    14     1    1
     3     1     2   am
     4     2     3    2
     5     2     4   am
     6     4     5    1
     7     5     6    1
     8     6     7    1
     9     7     8    2
    10     8    15    1
    11    15    16    3
    12    16    17    1
    13    17    18   ar
    14    18    19   ar
    15    19    20   ar
    16    20    21   ar
    17    21    22    1
    18    21    23   ar
    19     7     9    1
    20     1    10    1
    21    10    11    1
    22    10    12    1
    23     9     4    1
    24    23    17   ar
@<TRIPOS>MOLECULE
*****
 23 24 0 0 0
SMALL
GASTEIGER

@<TRIPOS>ATOM
      1 N          63.8775   83.3034   12.4441 N.am    1  UNL1       -0.2657
      2 C          63.8888   83.3953   10.9469 C.2     1  UNL1        0.3074
      3 O          64.6274   82.3705   10.1381 O.2     1  UNL1       -0.2523
      4 N          63.1615   84.5120   10.2586 N.am    1  UNL1       -0.2599
      5 C          63.0842   84.7327    8.7770 C.3     1  UNL1        0.0997
      6 C          62.2587   85.9612    8.5336 C.3     1  UNL1        0.0459
      7 C          61.8257   86.4999    9.8650 C.2     1  UNL1       -0.0145
      8 C          60.9828   87.7199   10.0907 C.2     1  UNL1        0.0428
      9 C          62.3837   85.6042   10.9311 C.3     1  UNL1        0.1181
     10 C          63.1389   84.3282   13.2528 C.3     1  UNL1        0.0769
     11 C          63.7252   85.6952   13.4472 C.3     1  UNL1        0.0216
     12 C          61.8140   83.9861   13.8673 C.3     1  UNL1        0.0216
     13 C          63.8457   80.9942   13.6344 C.3     1  UNL1        0.0233
     14 C          64.6048   82.1866   13.1324 C.3     1  UNL1        0.0949
     15 C          60.4944   88.5211    8.9203 C.1     1  UNL1       -0.0582
     16 C          60.0061   89.3222    7.7500 C.1     1  UNL1       -0.0405
     17 C          59.5177   90.1234    6.5796 C.ar    1  UNL1        0.1224
     18 C          60.5017   90.7517    5.6379 C.ar    1  UNL1        0.0276
     19 C          60.0133   91.5528    4.4675 C.ar    1  UNL1        0.0034
     20 C          58.5410   91.7255    4.2390 C.ar    1  UNL1        0.0148
     21 C          57.5570   91.0972    5.1807 C.ar    1  UNL1        0.0600
     22 C          56.0846   91.2700    4.9521 C.3     1  UNL1        0.0521
     23 N          58.0453   90.2961    6.3510 N.ar    1  UNL1       -0.2414
@<TRIPOS>BOND
     1    13    14    1
     2    14     1    1
     3     1     2   am
     4     2     3    2
     5     2     4   am
     6     4     5    1
     7     5     6    1
     8     6     7    1
     9     7     8    2
    10     8    15    1
    11    15    16    3
    12    16    17    1
    13    17    18   ar
    14    18    19   ar
    15    19    20   ar
    16    20    21   ar
    17    21    22    1
    18    21    23   ar
    19     7     9    1
    20     1    10    1
    21    10    11    1
    22    10    12    1
    23     9     4    1
    24    23    17   ar
@<TRIPOS>MOLECULE
*****
 23 24 0 0 0
SMALL
GASTEIGER

@<TRIPOS>ATOM
      1 N          45.4635   78.5082   20.7186 N.am    1  UNL1       -0.2657
      2 C          45.7440   77.0675   21.0285 C.2     1  UNL1        0.3074
      3 O          46.0394   76.6473   22.4378 O.2     1  UNL1       -0.2523
      4 N          45.7290   76.0473   19.9291 N.am    1  UNL1       -0.2599
      5 C          45.9891   74.5783   20.0859 C.3     1  UNL1        0.0997
      6 C          45.8722   73.9399   18.7336 C.3     1  UNL1        0.0459
      7 C          45.5397   75.0143   17.7410 C.2     1  UNL1       -0.0145
      8 C          45.3321   74.8203   16.2681 C.2     1  UNL1        0.0428
      9 C          45.4512   76.3167   18.4799 C.3     1  UNL1        0.1181
     10 C          45.1681   78.9284   19.3093 C.3     1  UNL1        0.0769
     11 C          46.2877   79.3352   18.3976 C.3     1  UNL1        0.0216
     12 C          43.7531   78.9418   18.8116 C.3     1  UNL1        0.0216
     13 C          44.1902   79.9810   22.4389 C.3     1  UNL1        0.0233
     14 C          45.4785   79.5285   21.8179 C.3     1  UNL1        0.0949
     15 C          45.4537   73.4511   15.6675 C.1     1  UNL1       -0.0582
     16 C          45.5752   72.0820   15.0669 C.1     1  UNL1       -0.0405
     17 C          45.6968   70.7129   14.4663 C.ar    1  UNL1        0.1224
     18 C          46.5903   69.6907   15.1040 C.ar    1  UNL1        0.0276
     19 C          46.7119   68.3216   14.5034 C.ar    1  UNL1        0.0034
     20 C          45.9398   67.9747   13.2651 C.ar    1  UNL1        0.0148
     21 C          45.0463   68.9968   12.6273 C.ar    1  UNL1        0.0600
     22 C          44.2742   68.6498   11.3889 C.3     1  UNL1        0.0521
     23 N          44.9248   70.3659   13.2279 N.ar    1  UNL1       -0.2414
@<TRIPOS>BOND
     1    13    14    1
     2    14     1    1
     3     1     2   am
     4     2     3    2
     5     2     4   am
     6     4     5    1
     7     5     6    1
     8     6     7    1
     9     7     8    2
    10     8    15    1
    11    15    16    3
    12    16    17    1
    13    17    18   ar
    14    18    19   ar
    15    19    20   ar
    16    20    21   ar
    17    21    22    1
    18    21    23   ar
    19     7     9    1
    20     1    10    1
    21    10    11    1
    22    10    12    1
    23     9     4    1
    24    23    17   ar
@<TRIPOS>MOLECULE
*****
 23 24 0 0 0
SMALL
GASTEIGER

@<TRIPOS>ATOM
      1 N          63.9148   85.7712   14.0186 N.am    1  UNL1       -0.2657
      2 C          63.8694   87.2227   13.6428 C.2     1  UNL1        0.3074
      3 O          64.5673   88.2404   14.4955 O.2     1  UNL1       -0.2523
      4 N          63.1262   87.6563   12.4142 N.am    1  UNL1       -0.2599
      5 C          62.9942   89.0645   11.9147 C.3     1  UNL1        0.0997
      6 C          62.1709   89.0365   10.6611 C.3     1  UNL1        0.0459
      7 C          61.7941   87.6109   10.3858 C.2     1  UNL1       -0.0145
      8 C          60.9714   87.1238    9.2300 C.2     1  UNL1        0.0428
      9 C          62.3846   86.7579   11.4692 C.3     1  UNL1        0.1181
     10 C          63.2169   84.7535   13.1659 C.3     1  UNL1        0.0769
     11 C          63.7984   84.3600   11.8404 C.3     1  UNL1        0.0216
     12 C          61.9375   84.1293   13.6387 C.3     1  UNL1        0.0216
     13 C          63.9930   85.4076   16.5900 C.3     1  UNL1        0.0233
     14 C          64.6580   85.3375   15.2473 C.3     1  UNL1        0.0949
     15 C          60.4457   88.0999    8.2195 C.1     1  UNL1       -0.0582
     16 C          59.9200   89.0760    7.2092 C.1     1  UNL1       -0.0405
     17 C          59.3943   90.0520    6.1987 C.ar    1  UNL1        0.1224
     18 C          60.3473   90.8253    5.3364 C.ar    1  UNL1        0.0276
     19 C          59.8216   91.8013    4.3260 C.ar    1  UNL1        0.0034
     20 C          58.3427   92.0041    4.1780 C.ar    1  UNL1        0.0148
     21 C          57.3897   91.2308    5.0403 C.ar    1  UNL1        0.0600
     22 C          55.9108   91.4336    4.8923 C.3     1  UNL1        0.0521
     23 N          57.9154   90.2548    6.0507 N.ar    1  UNL1       -0.2414
@<TRIPOS>BOND
     1    13    14    1
     2    14     1    1
     3     1     2   am
     4     2     3    2
     5     2     4   am
     6     4     5    1
     7     5     6    1
     8     6     7    1
     9     7     8    2
    10     8    15    1
    11    15    16    3
    12    16    17    1
    13    17    18   ar
    14    18    19   ar
    15    19    20   ar
    16    20    21   ar
    17    21    22    1
    18    21    23   ar
    19     7     9    1
    20     1    10    1
    21    10    11    1
    22    10    12    1
    23     9     4    1
    24    23    17   ar
@<TRIPOS>MOLECULE
*****
 23 24 0 0 0
SMALL
GASTEIGER

@<TRIPOS>ATOM
      1 N          63.3738   95.9004    0.1464 N.am    1  UNL1       -0.2657
      2 C          63.3265   95.5708   -1.3162 C.2     1  UNL1        0.3074
      3 O          64.4871   95.9172   -2.2009 O.2     1  UNL1       -0.2523
      4 N          62.1185   94.8948   -1.8939 N.am    1  UNL1       -0.2599
      5 C          61.9285   94.5053   -3.3299 C.3     1  UNL1        0.0997
      6 C          60.5810   93.8594   -3.4607 C.3     1  UNL1        0.0459
      7 C          59.9382   93.8497   -2.1053 C.2     1  UNL1       -0.0145
      8 C          58.5831   93.2971   -1.7762 C.2     1  UNL1        0.0428
      9 C          60.8884   94.4896   -1.1371 C.3     1  UNL1        0.1181
     10 C          62.2131   95.5540    1.0312 C.3     1  UNL1        0.0769
     11 C          61.1927   96.5989    1.3733 C.3     1  UNL1        0.0216
     12 C          62.0728   94.1627    1.5739 C.3     1  UNL1        0.0216
     13 C          65.0094   96.2748    2.1300 C.3     1  UNL1        0.0233
     14 C          64.5817   96.5764    0.7242 C.3     1  UNL1        0.0949
     15 C          57.7410   92.6835   -2.8553 C.1     1  UNL1       -0.0582
     16 C          56.8990   92.0699   -3.9344 C.1     1  UNL1       -0.0405
     17 C          56.0569   91.4563   -5.0135 C.ar    1  UNL1        0.1224
     18 C          56.1709   91.9495   -6.4255 C.ar    1  UNL1        0.0276
     19 C          55.3288   91.3359   -7.5045 C.ar    1  UNL1        0.0034
     20 C          54.3727   90.2291   -7.1715 C.ar    1  UNL1        0.0148
     21 C          54.2587   89.7359   -5.7596 C.ar    1  UNL1        0.0600
     22 C          53.3026   88.6291   -5.4266 C.3     1  UNL1        0.0521
     23 N          55.1008   90.3495   -4.6805 N.ar    1  UNL1       -0.2414
@<TRIPOS>BOND
     1    13    14    1
     2    14     1    1
     3     1     2   am
     4     2     3    2
     5     2     4   am
     6     4     5    1
     7     5     6    1
     8     6     7    1
     9     7     8    2
    10     8    15    1
    11    15    16    3
    12    16    17    1
    13    17    18   ar
    14    18    19   ar
    15    19    20   ar
    16    20    21   ar
    17    21    22    1
    18    21    23   ar
    19     7     9    1
    20     1    10    1
    21    10    11    1
    22    10    12    1
    23     9     4    1
    24    23    17   ar
@<TRIPOS>MOLECULE
*****
 23 24 0 0 0
SMALL
GASTEIGER

@<TRIPOS>ATOM
      1 N          64.9619   92.0410   13.1976 N.am    1  UNL1       -0.2657
      2 C          64.1665   91.1740   12.2671 C.2     1  UNL1        0.3074
      3 O          63.6000   91.7516   11.0040 O.2     1  UNL1       -0.2523
      4 N          63.9378   89.7294   12.5997 N.am    1  UNL1       -0.2599
      5 C          63.1673   88.7451   11.7706 C.3     1  UNL1        0.0997
      6 C          63.1926   87.4227   12.4783 C.3     1  UNL1        0.0459
      7 C          63.9789   87.5898   13.7448 C.2     1  UNL1       -0.0145
      8 C          64.2560   86.5193   14.7583 C.2     1  UNL1        0.0428
      9 C          64.4395   89.0154   13.8198 C.3     1  UNL1        0.1181
     10 C          65.5284   91.4634   14.4606 C.3     1  UNL1        0.0769
     11 C          64.6383   91.2355   15.6463 C.3     1  UNL1        0.0216
     12 C          66.9850   91.1137   14.5380 C.3     1  UNL1        0.0216
     13 C          66.3722   93.8856   12.0319 C.3     1  UNL1        0.0233
     14 C          65.1906   93.4857   12.8650 C.3     1  UNL1        0.0949
     15 C          63.7272   85.1315   14.5470 C.1     1  UNL1       -0.0582
     16 C          63.1984   83.7438   14.3357 C.1     1  UNL1       -0.0405
     17 C          62.6696   82.3561   14.1244 C.ar    1  UNL1        0.1224
     18 C          63.5964   81.2576   13.6951 C.ar    1  UNL1        0.0276
     19 C          63.0676   79.8699   13.4839 C.ar    1  UNL1        0.0034
     20 C          61.6119   79.5808   13.7019 C.ar    1  UNL1        0.0148
     21 C          60.6851   80.6792   14.1311 C.ar    1  UNL1        0.0600
     22 C          59.2295   80.3901   14.3491 C.3     1  UNL1        0.0521
     23 N          61.2140   82.0669   14.3424 N.ar    1  UNL1       -0.2414
@<TRIPOS>BOND
     1    13    14    1
     2    14     1    1
     3     1     2   am
     4     2     3    2
     5     2     4   am
     6     4     5    1
     7     5     6    1
     8     6     7    1
     9     7     8    2
    10     8    15    1
    11    15    16    3
    12    16    17    1
    13    17    18   ar
    14    18    19   ar
    15    19    20   ar
    16    20    21   ar
    17    21    22    1
    18    21    23   ar
    19     7     9    1
    20     1    10    1
    21    10    11    1
    22    10    12    1
    23     9     4    1
    24    23    17   ar
@<TRIPOS>MOLECULE
*****
 23 24 0 0 0
SMALL
GASTEIGER

@<TRIPOS>ATOM
      1 N          63.0232   93.5471    0.3646 N.am    1  UNL1       -0.2657
      2 C          61.6581   93.2475    0.9095 C.2     1  UNL1        0.3074
      3 O          61.5139   92.5057    2.2052 O.2     1  UNL1       -0.2523
      4 N          60.4373   93.6898    0.1586 N.am    1  UNL1       -0.2599
      5 C          59.0147   93.4634    0.5769 C.3     1  UNL1        0.0997
      6 C          58.1228   94.0698   -0.4656 C.3     1  UNL1        0.0459
      7 C          58.9943   94.6711   -1.5282 C.2     1  UNL1       -0.0145
      8 C          58.5187   95.3824   -2.7603 C.2     1  UNL1        0.0428
      9 C          60.4246   94.4362   -1.1425 C.3     1  UNL1        0.1181
     10 C          63.1674   94.2889   -0.9310 C.3     1  UNL1        0.0769
     11 C          63.2051   95.7884   -0.9366 C.3     1  UNL1        0.0216
     12 C          63.2739   93.5312   -2.2212 C.3     1  UNL1        0.0216
     13 C          65.5910   93.6521    0.7462 C.3     1  UNL1        0.0233
     14 C          64.2441   93.1048    1.1155 C.3     1  UNL1        0.0949
     15 C          57.0489   95.5419   -3.0141 C.1     1  UNL1       -0.0582
     16 C          55.5792   95.7013   -3.2678 C.1     1  UNL1       -0.0405
     17 C          54.1094   95.8609   -3.5215 C.ar    1  UNL1        0.1224
     18 C          53.1410   95.8104   -2.3772 C.ar    1  UNL1        0.0276
     19 C          51.6712   95.9700   -2.6310 C.ar    1  UNL1        0.0034
     20 C          51.1700   96.1799   -4.0291 C.ar    1  UNL1        0.0148
     21 C          52.1384   96.2303   -5.1734 C.ar    1  UNL1        0.0600
     22 C          51.6372   96.4402   -6.5715 C.3     1  UNL1        0.0521
     23 N          53.6081   96.0708   -4.9196 N.ar    1  UNL1       -0.2414
@<TRIPOS>BOND
     1    13    14    1
     2    14     1    1
     3     1     2   am
     4     2     3    2
     5     2     4   am
     6     4     5    1
     7     5     6    1
     8     6     7    1
     9     7     8    2
    10     8    15    1
    11    15    16    3
    12    16    17    1
    13    17    18   ar
    14    18    19   ar
    15    19    20   ar
    16    20    21   ar
    17    21    22    1
    18    21    23   ar
    19     7     9    1
    20     1    10    1
    21    10    11    1
    22    10    12    1
    23     9     4    1
    24    23    17   ar
