@<TRIPOS>MOLECULE
*****
 27 30 0 0 0
SMALL
GASTEIGER

@<TRIPOS>ATOM
      1 C          62.5616   89.4437   10.8002 C.ar    1  UNL1        0.0070
      2 C          63.0104   90.6768   10.0735 C.ar    1  UNL1       -0.0017
      3 C          63.9401   91.6451   10.7428 C.ar    1  UNL1       -0.0005
      4 C          64.4209   91.3804   12.1388 C.ar    1  UNL1       -0.0022
      5 C          65.3506   92.3488   12.8081 C.ar    1  UNL1        0.0018
      6 C          65.8313   92.0841   14.2041 C.ar    1  UNL1        0.0510
      7 C          65.3824   90.8510   14.9308 C.ar    1  UNL1        0.0042
      8 C          64.4528   89.8827   14.2615 C.ar    1  UNL1        0.0001
      9 C          63.9720   90.1474   12.8655 C.ar    1  UNL1       -0.0005
     10 C          63.0423   89.1790   12.1962 C.ar    1  UNL1       -0.0017
     11 C          66.7369   93.2111   14.6040 C.2     1  UNL1        0.2458
     12 O          67.4400   93.3521   15.9215 O.2     1  UNL1       -0.2701
     13 N          66.8157   94.1723   13.4552 N.am    1  UNL1       -0.2969
     14 C          65.9590   93.6394   12.3453 C.3     1  UNL1        0.1167
     15 H          67.3381   95.0065   13.4335 H       1  UNL1        0.1501
     16 C          61.6319   88.4753   10.1309 C.3     1  UNL1        0.1410
     17 O          62.7762   87.9317    9.3278 O.3     1  UNL1       -0.3771
     18 H          63.3113   87.3443    9.8840 H       1  UNL1        0.2112
     19 C          60.4876   89.0189   10.9340 C.ar    1  UNL1        0.0825
     20 C          59.9288   90.4080   10.8443 C.ar    1  UNL1        0.1157
     21 N          58.7969   90.5165   11.8227 N.ar    1  UNL1       -0.2228
     22 C          58.6562   89.1943   12.5171 C.ar    1  UNL1        0.1749
     23 N          59.7011   88.2688   11.9679 N.ar    1  UNL1       -0.3361
     24 H          59.8453   87.3332   12.2384 H       1  UNL1        0.1673
     25 C          59.6232   88.0113    8.5498 C.3     1  UNL1        0.0031
     26 C          60.7022   87.5070    9.4616 C.3     1  UNL1        0.0340
     27 C          60.8514   86.0342    9.7042 C.3     1  UNL1        0.0031
@<TRIPOS>BOND
     1    25    26    1
     2    26    27    1
     3    26    16    1
     4    16    17    1
     5    16     1    1
     6     1     2   ar
     7     2     3   ar
     8     3     4   ar
     9     4     5   ar
    10     5     6   ar
    11     6     7   ar
    12     7     8   ar
    13     8     9   ar
    14     9    10   ar
    15     6    11    1
    16    11    12    2
    17    11    13   am
    18    13    14    1
    19    16    19    1
    20    19    20   ar
    21    20    21   ar
    22    21    22   ar
    23    22    23   ar
    24    10     1   ar
    25    23    19   ar
    26     9     4   ar
    27    14     5    1
    28    17    18    1
    29    13    15    1
    30    23    24    1
@<TRIPOS>MOLECULE
*****
 27 30 0 0 0
SMALL
GASTEIGER

@<TRIPOS>ATOM
      1 C          62.8172   84.5341   13.2330 C.ar    1  UNL1        0.0070
      2 C          62.2221   85.0712   11.9653 C.ar    1  UNL1       -0.0017
      3 C          62.3716   86.5240   11.6233 C.ar    1  UNL1       -0.0005
      4 C          63.1162   87.4396   12.5490 C.ar    1  UNL1       -0.0022
      5 C          63.2658   88.8925   12.2070 C.ar    1  UNL1        0.0018
      6 C          64.0104   89.8082   13.1327 C.ar    1  UNL1        0.0510
      7 C          64.6056   89.2710   14.4006 C.ar    1  UNL1        0.0042
      8 C          64.4560   87.8182   14.7426 C.ar    1  UNL1        0.0001
      9 C          63.7114   86.9025   13.8168 C.ar    1  UNL1       -0.0005
     10 C          63.5618   85.4497   14.1588 C.ar    1  UNL1       -0.0017
     11 C          63.9958   91.1838   12.5349 C.2     1  UNL1        0.2458
     12 O          64.6246   92.4097   13.1281 O.2     1  UNL1       -0.2701
     13 N          63.2422   91.1183   11.2397 N.am    1  UNL1       -0.2969
     14 C          62.7910   89.7023   11.0370 C.3     1  UNL1        0.1167
     15 H          63.0734   91.8723   10.6296 H       1  UNL1        0.1501
     16 C          62.6677   83.0812   13.5751 C.3     1  UNL1        0.1410
     17 O          62.0500   83.4543   14.8901 O.3     1  UNL1       -0.3771
     18 H          61.1286   83.7233   14.7498 H       1  UNL1        0.2112
     19 C          63.2853   82.7081   12.2601 C.ar    1  UNL1        0.0825
     20 C          64.5882   83.2201   11.7211 C.ar    1  UNL1        0.1157
     21 N          64.8167   82.5859   10.3810 N.ar    1  UNL1       -0.2228
     22 C          63.6550   81.6819   10.0919 C.ar    1  UNL1        0.1749
     23 N          62.7086   81.7575   11.2532 N.ar    1  UNL1       -0.3361
     24 H          61.8583   81.2689   11.3394 H       1  UNL1        0.1673
     25 C          63.7332   80.7568   14.0351 C.3     1  UNL1        0.0031
     26 C          62.5182   81.6284   13.9171 C.3     1  UNL1        0.0340
     27 C          61.1536   81.0472   14.1411 C.3     1  UNL1        0.0031
@<TRIPOS>BOND
     1    25    26    1
     2    26    27    1
     3    26    16    1
     4    16    17    1
     5    16     1    1
     6     1     2   ar
     7     2     3   ar
     8     3     4   ar
     9     4     5   ar
    10     5     6   ar
    11     6     7   ar
    12     7     8   ar
    13     8     9   ar
    14     9    10   ar
    15     6    11    1
    16    11    12    2
    17    11    13   am
    18    13    14    1
    19    16    19    1
    20    19    20   ar
    21    20    21   ar
    22    21    22   ar
    23    22    23   ar
    24    10     1   ar
    25    23    19   ar
    26     9     4   ar
    27    14     5    1
    28    17    18    1
    29    13    15    1
    30    23    24    1
@<TRIPOS>MOLECULE
*****
 27 30 0 0 0
SMALL
GASTEIGER

@<TRIPOS>ATOM
      1 C          61.7831   89.5102   10.5703 C.ar    1  UNL1        0.0070
      2 C          61.7254   89.1076   12.0140 C.ar    1  UNL1       -0.0017
      3 C          62.6748   89.7185   13.0016 C.ar    1  UNL1       -0.0005
      4 C          63.6820   90.7321   12.5453 C.ar    1  UNL1       -0.0022
      5 C          64.6315   91.3430   13.5330 C.ar    1  UNL1        0.0018
      6 C          65.6387   92.3566   13.0767 C.ar    1  UNL1        0.0510
      7 C          65.6964   92.7593   11.6329 C.ar    1  UNL1        0.0042
      8 C          64.7470   92.1484   10.6454 C.ar    1  UNL1        0.0001
      9 C          63.7398   91.1348   11.1016 C.ar    1  UNL1       -0.0005
     10 C          62.7903   90.5238   10.1141 C.ar    1  UNL1       -0.0017
     11 C          66.4396   92.7842   14.2708 C.2     1  UNL1        0.2458
     12 O          67.5566   93.7854   14.2707 O.2     1  UNL1       -0.2701
     13 N          65.9273   92.0349   15.4649 N.am    1  UNL1       -0.2969
     14 C          64.8099   91.1442   15.0090 C.3     1  UNL1        0.1167
     15 H          66.2652   92.1138   16.3863 H       1  UNL1        0.1501
     16 C          60.8337   88.8993    9.5827 C.3     1  UNL1        0.1410
     17 O          60.2685   90.2567    9.2862 O.3     1  UNL1       -0.3771
     18 H          60.8771   90.7408    8.7064 H       1  UNL1        0.2112
     19 C          61.3988   87.5419    9.8791 C.ar    1  UNL1        0.0825
     20 C          62.3652   86.7822    9.0194 C.ar    1  UNL1        0.1157
     21 N          62.6605   85.4765    9.6963 N.ar    1  UNL1       -0.2228
     22 C          61.8766   85.4293   10.9744 C.ar    1  UNL1        0.1749
     23 N          61.0969   86.7057   11.0873 N.ar    1  UNL1       -0.3361
     24 H          60.4930   86.9515   11.8250 H       1  UNL1        0.1673
     25 C          59.1948   86.9959    8.9182 C.3     1  UNL1        0.0031
     26 C          59.8843   88.2883    8.5951 C.3     1  UNL1        0.0340
     27 C          59.6242   88.9698    7.2843 C.3     1  UNL1        0.0031
@<TRIPOS>BOND
     1    25    26    1
     2    26    27    1
     3    26    16    1
     4    16    17    1
     5    16     1    1
     6     1     2   ar
     7     2     3   ar
     8     3     4   ar
     9     4     5   ar
    10     5     6   ar
    11     6     7   ar
    12     7     8   ar
    13     8     9   ar
    14     9    10   ar
    15     6    11    1
    16    11    12    2
    17    11    13   am
    18    13    14    1
    19    16    19    1
    20    19    20   ar
    21    20    21   ar
    22    21    22   ar
    23    22    23   ar
    24    10     1   ar
    25    23    19   ar
    26     9     4   ar
    27    14     5    1
    28    17    18    1
    29    13    15    1
    30    23    24    1
@<TRIPOS>MOLECULE
*****
 27 30 0 0 0
SMALL
GASTEIGER

@<TRIPOS>ATOM
      1 C          62.5378   89.3108   11.0157 C.ar    1  UNL1        0.0070
      2 C          62.8103   88.7632   12.3853 C.ar    1  UNL1       -0.0017
      3 C          63.7435   89.4868   13.3102 C.ar    1  UNL1       -0.0005
      4 C          64.4042   90.7579   12.8656 C.ar    1  UNL1       -0.0022
      5 C          65.3374   91.4815   13.7906 C.ar    1  UNL1        0.0018
      6 C          65.9981   92.7526   13.3460 C.ar    1  UNL1        0.0510
      7 C          65.7256   93.3002   11.9763 C.ar    1  UNL1        0.0042
      8 C          64.7924   92.5766   11.0513 C.ar    1  UNL1        0.0001
      9 C          64.1317   91.3055   11.4960 C.ar    1  UNL1       -0.0005
     10 C          63.1985   90.5819   10.5710 C.ar    1  UNL1       -0.0017
     11 C          66.8643   93.2420   14.4686 C.2     1  UNL1        0.2458
     12 O          67.7078   94.4823   14.4551 O.2     1  UNL1       -0.2701
     13 N          66.7390   92.2734   15.6069 N.am    1  UNL1       -0.2969
     14 C          65.7953   91.1853   15.1880 C.3     1  UNL1        0.1167
     15 H          67.1958   92.3400   16.4764 H       1  UNL1        0.1501
     16 C          61.6046   88.5872   10.0906 C.3     1  UNL1        0.1410
     17 O          62.7760   88.0962    9.2928 O.3     1  UNL1       -0.3771
     18 H          63.2021   87.3621    9.7624 H       1  UNL1        0.2112
     19 C          60.4331   89.0783   10.8884 C.ar    1  UNL1        0.0825
     20 C          59.9066   90.4828   10.9086 C.ar    1  UNL1        0.1157
     21 N          58.7305   90.5236   11.8388 N.ar    1  UNL1       -0.2228
     22 C          58.5302   89.1444   12.3935 C.ar    1  UNL1        0.1749
     23 N          59.5824   88.2512   11.8062 N.ar    1  UNL1       -0.3361
     24 H          59.6949   87.2907   11.9906 H       1  UNL1        0.1673
     25 C          59.7914   88.6392    8.2307 C.3     1  UNL1        0.0031
     26 C          60.6714   87.8637    9.1657 C.3     1  UNL1        0.0340
     27 C          60.6181   86.3647    9.1757 C.3     1  UNL1        0.0031
@<TRIPOS>BOND
     1    25    26    1
     2    26    27    1
     3    26    16    1
     4    16    17    1
     5    16     1    1
     6     1     2   ar
     7     2     3   ar
     8     3     4   ar
     9     4     5   ar
    10     5     6   ar
    11     6     7   ar
    12     7     8   ar
    13     8     9   ar
    14     9    10   ar
    15     6    11    1
    16    11    12    2
    17    11    13   am
    18    13    14    1
    19    16    19    1
    20    19    20   ar
    21    20    21   ar
    22    21    22   ar
    23    22    23   ar
    24    10     1   ar
    25    23    19   ar
    26     9     4   ar
    27    14     5    1
    28    17    18    1
    29    13    15    1
    30    23    24    1
@<TRIPOS>MOLECULE
*****
 27 30 0 0 0
SMALL
GASTEIGER

@<TRIPOS>ATOM
      1 C          63.0669   84.3223   13.8187 C.ar    1  UNL1        0.0070
      2 C          63.8755   84.9780   14.8986 C.ar    1  UNL1       -0.0017
      3 C          64.1897   86.4424   14.8159 C.ar    1  UNL1       -0.0005
      4 C          63.6952   87.2511   13.6534 C.ar    1  UNL1       -0.0022
      5 C          64.0094   88.7155   13.5708 C.ar    1  UNL1        0.0018
      6 C          63.5150   89.5242   12.4082 C.ar    1  UNL1        0.0510
      7 C          62.7063   88.8685   11.3283 C.ar    1  UNL1        0.0042
      8 C          62.3922   87.4041   11.4109 C.ar    1  UNL1        0.0001
      9 C          62.8866   86.5954   12.5735 C.ar    1  UNL1       -0.0005
     10 C          62.5725   85.1310   12.6561 C.ar    1  UNL1       -0.0017
     11 C          63.9787   90.9383   12.5966 C.2     1  UNL1        0.2458
     12 O          63.7087   92.0856   11.6689 O.2     1  UNL1       -0.2701
     13 N          64.7597   91.0034   13.8755 N.am    1  UNL1       -0.2969
     14 C          64.7787   89.6298   14.4776 C.3     1  UNL1        0.1167
     15 H          65.1852   91.8068   14.2534 H       1  UNL1        0.1501
     16 C          62.7527   82.8579   13.9013 C.3     1  UNL1        0.1410
     17 O          62.1615   83.0616   15.2647 O.3     1  UNL1       -0.3771
     18 H          61.2776   83.4519   15.1788 H       1  UNL1        0.2112
     19 C          63.3440   82.6542   12.5379 C.ar    1  UNL1        0.0825
     20 C          64.7163   83.0729   12.1005 C.ar    1  UNL1        0.1157
     21 N          64.8872   82.6735   10.6647 N.ar    1  UNL1       -0.2228
     22 C          63.6205   82.0078   10.2148 C.ar    1  UNL1        0.1749
     23 N          62.6667   81.9959   11.3725 N.ar    1  UNL1       -0.3361
     24 H          61.7561   81.6217   11.3682 H       1  UNL1        0.1673
     25 C          61.0135   80.9368   14.0861 C.3     1  UNL1        0.0031
     26 C          62.4386   81.3935   13.9839 C.3     1  UNL1        0.0340
     27 C          63.5495   80.3858   13.9642 C.3     1  UNL1        0.0031
@<TRIPOS>BOND
     1    25    26    1
     2    26    27    1
     3    26    16    1
     4    16    17    1
     5    16     1    1
     6     1     2   ar
     7     2     3   ar
     8     3     4   ar
     9     4     5   ar
    10     5     6   ar
    11     6     7   ar
    12     7     8   ar
    13     8     9   ar
    14     9    10   ar
    15     6    11    1
    16    11    12    2
    17    11    13   am
    18    13    14    1
    19    16    19    1
    20    19    20   ar
    21    20    21   ar
    22    21    22   ar
    23    22    23   ar
    24    10     1   ar
    25    23    19   ar
    26     9     4   ar
    27    14     5    1
    28    17    18    1
    29    13    15    1
    30    23    24    1
@<TRIPOS>MOLECULE
*****
 27 30 0 0 0
SMALL
GASTEIGER

@<TRIPOS>ATOM
      1 C          63.6538   87.9898   13.2003 C.ar    1  UNL1        0.0070
      2 C          63.0164   87.4130   11.9711 C.ar    1  UNL1       -0.0017
      3 C          62.8242   85.9302   11.8515 C.ar    1  UNL1       -0.0005
      4 C          63.2695   85.0242   12.9610 C.ar    1  UNL1       -0.0022
      5 C          63.0773   83.5414   12.8413 C.ar    1  UNL1        0.0018
      6 C          63.5225   82.6354   13.9508 C.ar    1  UNL1        0.0510
      7 C          64.1600   83.2123   15.1800 C.ar    1  UNL1        0.0042
      8 C          64.3522   84.6951   15.2997 C.ar    1  UNL1        0.0001
      9 C          63.9069   85.6011   14.1902 C.ar    1  UNL1       -0.0005
     10 C          64.0991   87.0839   14.3098 C.ar    1  UNL1       -0.0017
     11 C          63.2046   81.2245   13.5530 C.2     1  UNL1        0.2458
     12 O          63.4800   79.9955   14.3675 O.2     1  UNL1       -0.2701
     13 N          62.5629   81.2585   12.1977 N.am    1  UNL1       -0.2969
     14 C          62.4842   82.6903   11.7578 C.3     1  UNL1        0.1167
     15 H          62.2485   80.4780   11.6865 H       1  UNL1        0.1501
     16 C          63.8460   89.4727   13.3200 C.3     1  UNL1        0.1410
     17 O          64.9828   89.2485   14.2725 O.3     1  UNL1       -0.3771
     18 H          65.7729   88.9832   13.7763 H       1  UNL1        0.2112
     19 C          62.7092   89.6969   12.3675 C.ar    1  UNL1        0.0825
     20 C          62.8155   89.7901   10.8742 C.ar    1  UNL1        0.1157
     21 N          61.4384   90.0180   10.3247 N.ar    1  UNL1       -0.2228
     22 C          60.4810   90.0657   11.4786 C.ar    1  UNL1        0.1749
     23 N          61.2664   89.8673   12.7410 N.ar    1  UNL1       -0.3361
     24 H          60.8994   89.8516   13.6544 H       1  UNL1        0.1673
     25 C          63.9460   91.6177   14.7824 C.3     1  UNL1        0.0031
     26 C          64.0382   90.9555   13.4397 C.3     1  UNL1        0.0340
     27 C          64.3225   91.7761   12.2166 C.3     1  UNL1        0.0031
@<TRIPOS>BOND
     1    25    26    1
     2    26    27    1
     3    26    16    1
     4    16    17    1
     5    16     1    1
     6     1     2   ar
     7     2     3   ar
     8     3     4   ar
     9     4     5   ar
    10     5     6   ar
    11     6     7   ar
    12     7     8   ar
    13     8     9   ar
    14     9    10   ar
    15     6    11    1
    16    11    12    2
    17    11    13   am
    18    13    14    1
    19    16    19    1
    20    19    20   ar
    21    20    21   ar
    22    21    22   ar
    23    22    23   ar
    24    10     1   ar
    25    23    19   ar
    26     9     4   ar
    27    14     5    1
    28    17    18    1
    29    13    15    1
    30    23    24    1
@<TRIPOS>MOLECULE
*****
 27 30 0 0 0
SMALL
GASTEIGER

@<TRIPOS>ATOM
      1 C          62.2898   87.2385   11.0541 C.ar    1  UNL1        0.0070
      2 C          62.4277   86.3209    9.8755 C.ar    1  UNL1       -0.0017
      3 C          62.6340   84.8507   10.0898 C.ar    1  UNL1       -0.0005
      4 C          62.7024   84.2981   11.4826 C.ar    1  UNL1       -0.0022
      5 C          62.9087   82.8279   11.6968 C.ar    1  UNL1        0.0018
      6 C          62.9770   82.2752   13.0897 C.ar    1  UNL1        0.0510
      7 C          62.8391   83.1929   14.2682 C.ar    1  UNL1        0.0042
      8 C          62.6329   84.6631   14.0540 C.ar    1  UNL1        0.0001
      9 C          62.5645   85.2157   12.6611 C.ar    1  UNL1       -0.0005
     10 C          62.3582   86.6859   12.4469 C.ar    1  UNL1       -0.0017
     11 C          63.1872   80.7933   12.9905 C.2     1  UNL1        0.2458
     12 O          63.3136   79.8418   14.1432 O.2     1  UNL1       -0.2701
     13 N          63.2486   80.4301   11.5365 N.am    1  UNL1       -0.2969
     14 C          63.0765   81.6875   10.7370 C.3     1  UNL1        0.1167
     15 H          63.3791   79.5253   11.1711 H       1  UNL1        0.1501
     16 C          62.0835   88.7088   10.8398 C.3     1  UNL1        0.1410
     17 O          63.1646   89.0057   11.8363 O.3     1  UNL1       -0.3771
     18 H          64.0314   88.8627   11.4251 H       1  UNL1        0.2112
     19 C          61.0024   88.4118    9.8434 C.ar    1  UNL1        0.0825
     20 C          59.9225   87.3817    9.9947 C.ar    1  UNL1        0.1157
     21 N          59.0640   87.4261    8.7654 N.ar    1  UNL1       -0.2228
     22 C          59.6133   88.4837    7.8543 C.ar    1  UNL1        0.1749
     23 N          60.8112   89.0928    8.5205 N.ar    1  UNL1       -0.3361
     24 H          61.3733   89.8132    8.1540 H       1  UNL1        0.1673
     25 C          62.9997   91.0255   10.1027 C.3     1  UNL1        0.0031
     26 C          61.8772   90.1789   10.6256 C.3     1  UNL1        0.0340
     27 C          60.5483   90.8027   10.9341 C.3     1  UNL1        0.0031
@<TRIPOS>BOND
     1    25    26    1
     2    26    27    1
     3    26    16    1
     4    16    17    1
     5    16     1    1
     6     1     2   ar
     7     2     3   ar
     8     3     4   ar
     9     4     5   ar
    10     5     6   ar
    11     6     7   ar
    12     7     8   ar
    13     8     9   ar
    14     9    10   ar
    15     6    11    1
    16    11    12    2
    17    11    13   am
    18    13    14    1
    19    16    19    1
    20    19    20   ar
    21    20    21   ar
    22    21    22   ar
    23    22    23   ar
    24    10     1   ar
    25    23    19   ar
    26     9     4   ar
    27    14     5    1
    28    17    18    1
    29    13    15    1
    30    23    24    1
