@<TRIPOS>MOLECULE
*****
 46 51 0 0 0
SMALL
GASTEIGER

@<TRIPOS>ATOM
      1 C          63.7604   83.8896   13.1323 C.ar    1  UNL1        0.1721
      2 C          63.2262   85.2662   13.3957 C.ar    1  UNL1        0.0360
      3 C          62.5996   86.0532   12.2830 C.ar    1  UNL1       -0.0119
      4 C          62.5073   85.4636   10.9069 C.ar    1  UNL1       -0.0000
      5 C          63.0416   84.0869   10.6434 C.ar    1  UNL1        0.0374
      6 C          63.6682   83.3000   11.7561 C.ar    1  UNL1        0.1718
      7 C          61.8808   86.2505    9.7942 C.3     1  UNL1        0.1246
      8 N          61.3465   87.6271   10.0576 N.am    1  UNL1       -0.2508
      9 C          61.4388   88.2169   11.4338 C.2     1  UNL1        0.2342
     10 O          60.9045   89.5935   11.6972 O.2     1  UNL1       -0.2742
     11 C          62.0653   87.4299   12.5465 C.3     1  UNL1        0.1118
     12 C          61.7885   85.6609    8.4180 C.ar    1  UNL1        0.0003
     13 C          63.0390   85.3281    7.6592 C.ar    1  UNL1       -0.0015
     14 C          62.9467   84.7385    6.2831 C.ar    1  UNL1        0.0111
     15 C          61.6040   84.4816    5.6657 C.ar    1  UNL1        0.0577
     16 CL         61.5118   83.8919    4.2895 Cl      1  UNL1       -0.0822
     17 C          60.3536   84.8143    6.4244 C.ar    1  UNL1        0.0111
     18 C          60.4458   85.4040    7.8006 C.ar    1  UNL1       -0.0015
     19 C          60.7200   88.4141    8.9449 C.ar    1  UNL1        0.0736
     20 C          59.5057   87.8834    8.2422 C.ar    1  UNL1        0.0194
     21 C          58.8792   88.6704    7.1295 C.ar    1  UNL1        0.0356
     22 C          59.4669   89.9881    6.7195 C.ar    1  UNL1        0.1318
     23 N          60.6813   90.5189    7.4222 N.ar    1  UNL1       -0.2279
     24 C          61.3078   89.7319    8.5349 C.ar    1  UNL1        0.1151
     25 N          58.8404   90.7751    5.6068 N.pl3   1  UNL1       -0.2915
     26 C          57.7430   90.1677    4.7841 C.3     1  UNL1        0.1136
     27 C          59.3113   92.1694    5.3168 C.3     1  UNL1        0.0922
     28 C          60.0492   92.4623    4.0441 C.3     1  UNL1        0.0199
     29 C          61.4582   91.9795    3.8660 C.3     1  UNL1        0.0031
     30 C          62.1962   92.2724    2.5934 C.3     1  UNL1        0.0161
     31 C          61.5251   93.0481    1.4988 C.3     1  UNL1        0.0595
     32 C          60.1162   93.5309    1.6769 C.3     1  UNL1        0.0161
     33 C          59.3782   93.2380    2.9496 C.3     1  UNL1        0.0031
     34 N          62.2631   93.3410    0.2262 N.3     1  UNL1       -0.2492
     35 C          63.3423   94.3676    0.0490 C.3     1  UNL1        0.1599
     36 C          63.7976   94.3198   -1.3794 C.2     1  UNL1        0.2431
     37 O          64.8636   95.1776   -1.9942 O.2     1  UNL1       -0.2733
     38 N          62.9998   93.2637   -2.0851 N.am    1  UNL1       -0.2624
     39 C          63.1278   92.8798   -3.5295 C.3     1  UNL1        0.1162
     40 C          62.0514   92.6588   -1.0928 C.3     1  UNL1        0.1713
     41 C          64.2693   83.5820   15.6614 C.3     1  UNL1        0.2526
     42 O          64.3870   83.1026   14.2450 O.3     1  UNL1       -0.4684
     43 O          64.2024   81.9233   11.4927 O.3     1  UNL1       -0.4761
     44 C          63.2668   80.7517   11.4468 C.3     1  UNL1        0.1663
     45 C          62.6277   80.2524   12.7087 C.3     1  UNL1        0.0472
     46 C          62.9703   80.0795   10.1391 C.3     1  UNL1        0.0472
@<TRIPOS>BOND
     1    41    42    1
     2    42     1    1
     3     1     2   ar
     4     2     3   ar
     5     3     4   ar
     6     4     5   ar
     7     5     6   ar
     8     6    43    1
     9    43    44    1
    10    44    45    1
    11    44    46    1
    12     4     7    1
    13     7    12    1
    14    12    13   ar
    15    13    14   ar
    16    14    15   ar
    17    15    16    1
    18    15    17   ar
    19    17    18   ar
    20     7     8    1
    21     8    19    1
    22    19    20   ar
    23    20    21   ar
    24    21    22   ar
    25    22    25    1
    26    25    26    1
    27    25    27    1
    28    28    27    1
    29    28    29    1
    30    29    30    1
    31    30    31    1
    32    31    34    1
    33    34    35    1
    34    35    36    1
    35    36    37    2
    36    36    38   am
    37    38    39    1
    38    38    40    1
    39    31    32    1
    40    32    33    1
    41    22    23   ar
    42    23    24   ar
    43     8     9   am
    44     9    10    2
    45     9    11    1
    46     6     1   ar
    47    18    12   ar
    48    24    19   ar
    49    11     3    1
    50    33    28    1
    51    40    34    1
@<TRIPOS>MOLECULE
*****
 46 51 0 0 0
SMALL
GASTEIGER

@<TRIPOS>ATOM
      1 C          59.8327   91.1478    5.5405 C.ar    1  UNL1        0.1721
      2 C          61.2191   90.9204    5.0150 C.ar    1  UNL1        0.0360
      3 C          61.6665   91.6057    3.7579 C.ar    1  UNL1       -0.0119
      4 C          60.7276   92.5185    3.0264 C.ar    1  UNL1       -0.0000
      5 C          59.3412   92.7459    3.5519 C.ar    1  UNL1        0.0374
      6 C          58.8938   92.0606    4.8090 C.ar    1  UNL1        0.1718
      7 C          61.1750   93.2038    1.7694 C.3     1  UNL1        0.1246
      8 N          62.5613   92.9763    1.2438 N.am    1  UNL1       -0.2508
      9 C          63.5004   92.0635    1.9753 C.2     1  UNL1        0.2342
     10 O          64.8867   91.8360    1.4498 O.2     1  UNL1       -0.2742
     11 C          63.0529   91.3782    3.2324 C.3     1  UNL1        0.1118
     12 C          60.2360   94.1165    1.0378 C.ar    1  UNL1        0.0003
     13 C          60.2397   95.5877    1.3308 C.ar    1  UNL1       -0.0015
     14 C          59.3008   96.5005    0.5993 C.ar    1  UNL1        0.0111
     15 C          58.3581   95.9422   -0.4252 C.ar    1  UNL1        0.0577
     16 CL         57.4191   96.8550   -1.1568 Cl      1  UNL1       -0.0822
     17 C          58.3543   94.4711   -0.7182 C.ar    1  UNL1        0.0111
     18 C          59.2933   93.5583    0.0133 C.ar    1  UNL1       -0.0015
     19 C          63.0087   93.6616   -0.0132 C.ar    1  UNL1        0.0736
     20 C          63.7081   94.9864    0.0630 C.ar    1  UNL1        0.0194
     21 C          64.1555   95.6717   -1.1941 C.ar    1  UNL1        0.0356
     22 C          63.9035   95.0322   -2.5273 C.ar    1  UNL1        0.1318
     23 N          63.2041   93.7074   -2.6036 N.ar    1  UNL1       -0.2279
     24 C          62.7567   93.0221   -1.3465 C.ar    1  UNL1        0.1151
     25 N          64.3509   95.7176   -3.7844 N.pl3   1  UNL1       -0.2915
     26 C          65.4574   96.7291   -3.7341 C.3     1  UNL1        0.1136
     27 C          63.6918   95.3913   -5.0918 C.3     1  UNL1        0.0922
     28 C          62.1977   95.4456   -5.2126 C.3     1  UNL1        0.0199
     29 C          61.5097   94.7309   -6.3378 C.3     1  UNL1        0.0031
     30 C          60.0156   94.7853   -6.4586 C.3     1  UNL1        0.0161
     31 C          59.2094   95.5543   -5.4542 C.3     1  UNL1        0.0595
     32 C          59.8974   96.2689   -4.3291 C.3     1  UNL1        0.0161
     33 C          61.3915   96.2146   -4.2083 C.3     1  UNL1        0.0031
     34 N          57.7153   95.6086   -5.5750 N.3     1  UNL1       -0.2492
     35 C          56.7434   95.7462   -4.4407 C.3     1  UNL1        0.1599
     36 C          55.3581   95.7575   -5.0160 C.2     1  UNL1        0.2431
     37 O          54.0814   95.8783   -4.2380 O.2     1  UNL1       -0.2733
     38 N          55.4738   95.6269   -6.5058 N.am    1  UNL1       -0.2624
     39 C          54.3331   95.5941   -7.4792 C.3     1  UNL1        0.1162
     40 C          56.9306   95.5349   -6.8512 C.3     1  UNL1        0.1713
     41 C          59.8136   89.0522    7.0761 C.3     1  UNL1        0.2526
     42 O          59.3853   90.4625    6.7976 O.3     1  UNL1       -0.4684
     43 O          57.5073   92.2881    5.3345 O.3     1  UNL1       -0.4761
     44 C          56.4549   91.2346    5.1547 C.3     1  UNL1        0.1663
     45 C          55.1606   91.5754    4.4772 C.3     1  UNL1        0.0472
     46 C          56.6965   89.8404    5.6523 C.3     1  UNL1        0.0472
@<TRIPOS>BOND
     1    41    42    1
     2    42     1    1
     3     1     2   ar
     4     2     3   ar
     5     3     4   ar
     6     4     5   ar
     7     5     6   ar
     8     6    43    1
     9    43    44    1
    10    44    45    1
    11    44    46    1
    12     4     7    1
    13     7    12    1
    14    12    13   ar
    15    13    14   ar
    16    14    15   ar
    17    15    16    1
    18    15    17   ar
    19    17    18   ar
    20     7     8    1
    21     8    19    1
    22    19    20   ar
    23    20    21   ar
    24    21    22   ar
    25    22    25    1
    26    25    26    1
    27    25    27    1
    28    28    27    1
    29    28    29    1
    30    29    30    1
    31    30    31    1
    32    31    34    1
    33    34    35    1
    34    35    36    1
    35    36    37    2
    36    36    38   am
    37    38    39    1
    38    38    40    1
    39    31    32    1
    40    32    33    1
    41    22    23   ar
    42    23    24   ar
    43     8     9   am
    44     9    10    2
    45     9    11    1
    46     6     1   ar
    47    18    12   ar
    48    24    19   ar
    49    11     3    1
    50    33    28    1
    51    40    34    1
@<TRIPOS>MOLECULE
*****
 46 51 0 0 0
SMALL
GASTEIGER

@<TRIPOS>ATOM
      1 C          66.7010   95.5907   10.7265 C.ar    1  UNL1        0.1721
      2 C          66.9947   95.2998   12.1684 C.ar    1  UNL1        0.0360
      3 C          66.4049   94.0863   12.8239 C.ar    1  UNL1       -0.0119
      4 C          65.5215   93.1638   12.0375 C.ar    1  UNL1       -0.0000
      5 C          65.2278   93.4548   10.5957 C.ar    1  UNL1        0.0374
      6 C          65.8176   94.6682    9.9401 C.ar    1  UNL1        0.1718
      7 C          64.9317   91.9504   12.6931 C.3     1  UNL1        0.1246
      8 N          65.2253   91.6594   14.1349 N.am    1  UNL1       -0.2508
      9 C          66.1088   92.5820   14.9214 C.2     1  UNL1        0.2342
     10 O          66.4025   92.2910   16.3633 O.2     1  UNL1       -0.2742
     11 C          66.6986   93.7954   14.2659 C.3     1  UNL1        0.1118
     12 C          64.0482   91.0279   11.9067 C.ar    1  UNL1        0.0003
     13 C          63.6267   89.7128   12.4924 C.ar    1  UNL1       -0.0015
     14 C          62.7432   88.7902   11.7060 C.ar    1  UNL1        0.0111
     15 C          62.2812   89.1828   10.3340 C.ar    1  UNL1        0.0577
     16 CL         61.3977   88.2602    9.5476 Cl      1  UNL1       -0.0822
     17 C          62.7027   90.4978    9.7483 C.ar    1  UNL1        0.0111
     18 C          63.5862   91.4204   10.5347 C.ar    1  UNL1       -0.0015
     19 C          64.6355   90.4460   14.7905 C.ar    1  UNL1        0.0736
     20 C          63.6335   90.6029   15.8955 C.ar    1  UNL1        0.0194
     21 C          63.0437   89.3895   16.5510 C.ar    1  UNL1        0.0356
     22 C          63.4560   88.0191   16.1015 C.ar    1  UNL1        0.1318
     23 N          64.4581   87.8622   14.9964 N.ar    1  UNL1       -0.2279
     24 C          65.0479   89.0756   14.3409 C.ar    1  UNL1        0.1151
     25 N          62.8662   86.8057   16.7570 N.pl3   1  UNL1       -0.2915
     26 C          61.4806   86.8609   17.3288 C.3     1  UNL1        0.1136
     27 C          63.6621   85.5369   16.8407 C.3     1  UNL1        0.0922
     28 C          63.5065   84.4830   15.7847 C.3     1  UNL1        0.0199
     29 C          62.2870   83.6097   15.7706 C.3     1  UNL1        0.0031
     30 C          62.1314   82.5557   14.7147 C.3     1  UNL1        0.0161
     31 C          63.1954   82.3752   13.6728 C.3     1  UNL1        0.0595
     32 C          64.4148   83.2485   13.6869 C.3     1  UNL1        0.0161
     33 C          64.5704   84.3024   14.7429 C.3     1  UNL1        0.0031
     34 N          63.0398   81.3212   12.6168 N.3     1  UNL1       -0.2492
     35 C          63.0650   81.5480   11.1343 C.3     1  UNL1        0.1599
     36 C          62.8725   80.2224   10.4592 C.2     1  UNL1        0.2431
     37 O          62.8314   79.9847    8.9787 O.2     1  UNL1       -0.2733
     38 N          62.7284   79.1763   11.5245 N.am    1  UNL1       -0.2624
     39 C          62.5178   77.7088   11.2964 C.3     1  UNL1        0.1162
     40 C          62.8318   79.8554   12.8580 C.3     1  UNL1        0.1713
     41 C          68.1476   96.6547    8.8489 C.3     1  UNL1        0.2526
     42 O          67.2908   96.8042   10.0710 O.3     1  UNL1       -0.4684
     43 O          65.5238   94.9591    8.4982 O.3     1  UNL1       -0.4761
     44 C          64.8118   96.2234    8.1181 C.3     1  UNL1        0.1663
     45 C          65.0679   96.8559    6.7822 C.3     1  UNL1        0.0472
     46 C          63.8435   96.8552    9.0737 C.3     1  UNL1        0.0472
@<TRIPOS>BOND
     1    41    42    1
     2    42     1    1
     3     1     2   ar
     4     2     3   ar
     5     3     4   ar
     6     4     5   ar
     7     5     6   ar
     8     6    43    1
     9    43    44    1
    10    44    45    1
    11    44    46    1
    12     4     7    1
    13     7    12    1
    14    12    13   ar
    15    13    14   ar
    16    14    15   ar
    17    15    16    1
    18    15    17   ar
    19    17    18   ar
    20     7     8    1
    21     8    19    1
    22    19    20   ar
    23    20    21   ar
    24    21    22   ar
    25    22    25    1
    26    25    26    1
    27    25    27    1
    28    28    27    1
    29    28    29    1
    30    29    30    1
    31    30    31    1
    32    31    34    1
    33    34    35    1
    34    35    36    1
    35    36    37    2
    36    36    38   am
    37    38    39    1
    38    38    40    1
    39    31    32    1
    40    32    33    1
    41    22    23   ar
    42    23    24   ar
    43     8     9   am
    44     9    10    2
    45     9    11    1
    46     6     1   ar
    47    18    12   ar
    48    24    19   ar
    49    11     3    1
    50    33    28    1
    51    40    34    1
@<TRIPOS>MOLECULE
*****
 46 51 0 0 0
SMALL
GASTEIGER

@<TRIPOS>ATOM
      1 C          66.4194   95.5692   11.2804 C.ar    1  UNL1        0.1721
      2 C          66.9214   95.0251   12.5850 C.ar    1  UNL1        0.0360
      3 C          66.3695   93.7383   13.1230 C.ar    1  UNL1       -0.0119
      4 C          65.3156   92.9956   12.3565 C.ar    1  UNL1       -0.0000
      5 C          64.8136   93.5396   11.0520 C.ar    1  UNL1        0.0374
      6 C          65.3655   94.8264   10.5139 C.ar    1  UNL1        0.1718
      7 C          64.7637   91.7088   12.8946 C.3     1  UNL1        0.1246
      8 N          65.2657   91.1647   14.1992 N.am    1  UNL1       -0.2508
      9 C          66.3196   91.9075   14.9658 C.2     1  UNL1        0.2342
     10 O          66.8216   91.3635   16.2704 O.2     1  UNL1       -0.2742
     11 C          66.8715   93.1943   14.4277 C.3     1  UNL1        0.1118
     12 C          63.7098   90.9660   12.1281 C.ar    1  UNL1        0.0003
     13 C          63.7799   90.8966   10.6313 C.ar    1  UNL1       -0.0015
     14 C          62.7260   90.1538    9.8648 C.ar    1  UNL1        0.0111
     15 C          61.6020   89.4805   10.5950 C.ar    1  UNL1        0.0577
     16 CL         60.5480   88.7377    9.8284 Cl      1  UNL1       -0.0822
     17 C          61.5319   89.5499   12.0918 C.ar    1  UNL1        0.0111
     18 C          62.5858   90.2927   12.8583 C.ar    1  UNL1       -0.0015
     19 C          64.7137   89.8779   14.7373 C.ar    1  UNL1        0.0736
     20 C          65.2237   88.5671   14.2162 C.ar    1  UNL1        0.0194
     21 C          64.6718   87.2803   14.7543 C.ar    1  UNL1        0.0356
     22 C          63.6099   87.3043   15.8135 C.ar    1  UNL1        0.1318
     23 N          63.0999   88.6152   16.3346 N.ar    1  UNL1       -0.2279
     24 C          63.6518   89.9020   15.7965 C.ar    1  UNL1        0.1151
     25 N          63.0580   86.0175   16.3515 N.pl3   1  UNL1       -0.2915
     26 C          62.4479   85.9777   17.7212 C.3     1  UNL1        0.1136
     27 C          63.1163   84.7705   15.5198 C.3     1  UNL1        0.0922
     28 C          62.8785   84.8438   14.0406 C.3     1  UNL1        0.0199
     29 C          63.6957   84.0008   13.1070 C.3     1  UNL1        0.0031
     30 C          63.4579   84.0741   11.6277 C.3     1  UNL1        0.0161
     31 C          62.4029   84.9904   11.0822 C.3     1  UNL1        0.0595
     32 C          61.5858   85.8333   12.0158 C.3     1  UNL1        0.0161
     33 C          61.8236   85.7600   13.4951 C.3     1  UNL1        0.0031
     34 N          62.1652   85.0637    9.6030 N.3     1  UNL1       -0.2492
     35 C          60.9725   85.6768    8.9310 C.3     1  UNL1        0.1599
     36 C          61.1485   85.5288    7.4487 C.2     1  UNL1        0.2431
     37 O          60.1911   86.0023    6.3955 O.2     1  UNL1       -0.2733
     38 N          62.4500   84.8241    7.2046 N.am    1  UNL1       -0.2624
     39 C          63.0226   84.4692    5.8644 C.3     1  UNL1        0.1162
     40 C          63.0783   84.5367    8.5360 C.3     1  UNL1        0.1713
     41 C          67.9626   96.8344    9.6167 C.3     1  UNL1        0.2526
     42 O          66.9713   96.8560   10.7423 O.3     1  UNL1       -0.4684
     43 O          64.8635   95.3705    9.2092 O.3     1  UNL1       -0.4761
     44 C          65.8153   95.5846    8.0699 C.3     1  UNL1        0.1663
     45 C          65.5549   96.6711    7.0690 C.3     1  UNL1        0.0472
     46 C          67.0277   94.7121    7.9314 C.3     1  UNL1        0.0472
@<TRIPOS>BOND
     1    41    42    1
     2    42     1    1
     3     1     2   ar
     4     2     3   ar
     5     3     4   ar
     6     4     5   ar
     7     5     6   ar
     8     6    43    1
     9    43    44    1
    10    44    45    1
    11    44    46    1
    12     4     7    1
    13     7    12    1
    14    12    13   ar
    15    13    14   ar
    16    14    15   ar
    17    15    16    1
    18    15    17   ar
    19    17    18   ar
    20     7     8    1
    21     8    19    1
    22    19    20   ar
    23    20    21   ar
    24    21    22   ar
    25    22    25    1
    26    25    26    1
    27    25    27    1
    28    28    27    1
    29    28    29    1
    30    29    30    1
    31    30    31    1
    32    31    34    1
    33    34    35    1
    34    35    36    1
    35    36    37    2
    36    36    38   am
    37    38    39    1
    38    38    40    1
    39    31    32    1
    40    32    33    1
    41    22    23   ar
    42    23    24   ar
    43     8     9   am
    44     9    10    2
    45     9    11    1
    46     6     1   ar
    47    18    12   ar
    48    24    19   ar
    49    11     3    1
    50    33    28    1
    51    40    34    1
@<TRIPOS>MOLECULE
*****
 46 51 0 0 0
SMALL
GASTEIGER

@<TRIPOS>ATOM
      1 C          63.8755   83.1101   12.0741 C.ar    1  UNL1        0.1721
      2 C          63.7280   83.0708   10.5819 C.ar    1  UNL1        0.0360
      3 C          62.9701   84.1548    9.8744 C.ar    1  UNL1       -0.0119
      4 C          62.3599   85.2781   10.6590 C.ar    1  UNL1       -0.0000
      5 C          62.5074   85.3174   12.1512 C.ar    1  UNL1        0.0374
      6 C          63.2653   84.2334   12.8587 C.ar    1  UNL1        0.1718
      7 C          61.6020   86.3621    9.9515 C.3     1  UNL1        0.1246
      8 N          61.4545   86.3228    8.4593 N.am    1  UNL1       -0.2508
      9 C          62.0648   85.1995    7.6746 C.2     1  UNL1        0.2342
     10 O          61.9172   85.1602    6.1824 O.2     1  UNL1       -0.2742
     11 C          62.8226   84.1155    8.3821 C.3     1  UNL1        0.1118
     12 C          60.9918   87.4854   10.7361 C.ar    1  UNL1        0.0003
     13 C          59.5203   87.4841   11.0273 C.ar    1  UNL1       -0.0015
     14 C          58.9100   88.6074   11.8120 C.ar    1  UNL1        0.0111
     15 C          59.7712   89.7321   12.3054 C.ar    1  UNL1        0.0577
     16 CL         59.1608   90.8555   13.0901 Cl      1  UNL1       -0.0822
     17 C          61.2426   89.7335   12.0142 C.ar    1  UNL1        0.0111
     18 C          61.8530   88.6101   11.2295 C.ar    1  UNL1       -0.0015
     19 C          60.6966   87.4068    7.7518 C.ar    1  UNL1        0.0736
     20 C          61.1928   88.8216    7.7979 C.ar    1  UNL1        0.0194
     21 C          60.4350   89.9056    7.0904 C.ar    1  UNL1        0.0356
     22 C          59.1810   89.5749    6.3367 C.ar    1  UNL1        0.1318
     23 N          58.6848   88.1600    6.2905 N.ar    1  UNL1       -0.2279
     24 C          59.4426   87.0760    6.9980 C.ar    1  UNL1        0.1151
     25 N          58.4232   90.6589    5.6291 N.pl3   1  UNL1       -0.2915
     26 C          57.0393   90.3936    5.1149 C.3     1  UNL1        0.1136
     27 C          59.0493   92.0082    5.4359 C.3     1  UNL1        0.0922
     28 C          59.7612   92.3282    4.1549 C.3     1  UNL1        0.0199
     29 C          61.2166   91.9984    4.0032 C.3     1  UNL1        0.0031
     30 C          61.9285   92.3183    2.7222 C.3     1  UNL1        0.0161
     31 C          61.1850   92.9680    1.5930 C.3     1  UNL1        0.0595
     32 C          59.7296   93.2978    1.7448 C.3     1  UNL1        0.0161
     33 C          59.0177   92.9779    3.0257 C.3     1  UNL1        0.0031
     34 N          61.8969   93.2880    0.3121 N.3     1  UNL1       -0.2492
     35 C          61.5544   92.7492   -1.0453 C.3     1  UNL1        0.1599
     36 C          62.5221   93.3311   -2.0327 C.2     1  UNL1        0.2431
     37 O          62.5452   93.0618   -3.5082 O.2     1  UNL1       -0.2733
     38 N          63.4627   94.2295   -1.2856 N.am    1  UNL1       -0.2624
     39 C          64.5914   95.0164   -1.8827 C.3     1  UNL1        0.1162
     40 C          63.0762   94.2029    0.1635 C.3     1  UNL1        0.1713
     41 C          63.9214   81.1127   13.7348 C.3     1  UNL1        0.2526
     42 O          64.6334   82.0261   12.7816 O.3     1  UNL1       -0.4684
     43 O          63.4128   84.2727   14.3510 O.3     1  UNL1       -0.4761
     44 C          64.3627   85.2450   14.9853 C.3     1  UNL1        0.1663
     45 C          63.8503   86.2736   15.9495 C.3     1  UNL1        0.0472
     46 C          65.8249   85.1887   14.6556 C.3     1  UNL1        0.0472
@<TRIPOS>BOND
     1    41    42    1
     2    42     1    1
     3     1     2   ar
     4     2     3   ar
     5     3     4   ar
     6     4     5   ar
     7     5     6   ar
     8     6    43    1
     9    43    44    1
    10    44    45    1
    11    44    46    1
    12     4     7    1
    13     7    12    1
    14    12    13   ar
    15    13    14   ar
    16    14    15   ar
    17    15    16    1
    18    15    17   ar
    19    17    18   ar
    20     7     8    1
    21     8    19    1
    22    19    20   ar
    23    20    21   ar
    24    21    22   ar
    25    22    25    1
    26    25    26    1
    27    25    27    1
    28    28    27    1
    29    28    29    1
    30    29    30    1
    31    30    31    1
    32    31    34    1
    33    34    35    1
    34    35    36    1
    35    36    37    2
    36    36    38   am
    37    38    39    1
    38    38    40    1
    39    31    32    1
    40    32    33    1
    41    22    23   ar
    42    23    24   ar
    43     8     9   am
    44     9    10    2
    45     9    11    1
    46     6     1   ar
    47    18    12   ar
    48    24    19   ar
    49    11     3    1
    50    33    28    1
    51    40    34    1
