@<TRIPOS>MOLECULE
*****
 41 45 0 0 0
SMALL
GASTEIGER

@<TRIPOS>ATOM
      1 C          60.0992   88.7196    8.0272 C.ar    1  UNL1        0.0014
      2 C          60.1940   87.2407    7.7954 C.ar    1  UNL1        0.0032
      3 C          60.5570   86.3259    8.9274 C.ar    1  UNL1        0.0388
      4 C          60.8251   86.8900   10.2912 C.ar    1  UNL1        0.1586
      5 C          60.7302   88.3690   10.5230 C.ar    1  UNL1        0.0865
      6 C          60.3673   89.2838    9.3910 C.ar    1  UNL1        0.0178
      7 C          59.0105   91.4641    4.6312 C.ar    1  UNL1        0.1397
      8 C          60.4488   91.1278    4.8922 C.ar    1  UNL1        0.0369
      9 C          60.8117   90.2130    6.0242 C.ar    1  UNL1        0.0031
     10 C          59.7363   89.6344    6.8952 C.ar    1  UNL1        0.0003
     11 C          58.2979   89.9707    6.6343 C.ar    1  UNL1        0.0042
     12 C          57.9350   90.8855    5.5022 C.ar    1  UNL1        0.0479
     13 C          56.4967   91.2218    5.2413 C.2     1  UNL1        0.0758
     14 O          56.1440   92.4542    4.4624 O.co2   1  UNL1       -0.5445
     15 O          55.4111   90.3255    5.7593 O.co2   1  UNL1       -0.5445
     16 C          59.7107   92.8716    2.5628 C.3     1  UNL1        0.2525
     17 O          58.6475   92.3789    3.4993 O.3     1  UNL1       -0.4714
     18 N          60.9983   88.9331   11.8867 N.am    1  UNL1       -0.2656
     19 C          62.2697   89.6838   12.1512 C.2     1  UNL1        0.3083
     20 O          63.2730   89.8703   11.0519 O.2     1  UNL1       -0.2521
     21 N          62.5378   90.2479   13.5150 N.am    1  UNL1       -0.2673
     22 H          60.3398   88.8106   12.6082 H       1  UNL1        0.1565
     23 H          61.8793   90.1254   14.2365 H       1  UNL1        0.1564
     24 C          63.8092   90.9986   13.7795 C.ar    1  UNL1        0.0622
     25 C          64.5413   91.6561   12.6474 C.ar    1  UNL1        0.0156
     26 C          65.8128   92.4068   12.9119 C.ar    1  UNL1        0.0013
     27 C          66.3520   92.4999   14.3085 C.ar    1  UNL1        0.0009
     28 C          65.6199   91.8424   15.4406 C.ar    1  UNL1        0.0126
     29 C          64.3485   91.0918   15.1761 C.ar    1  UNL1        0.0711
     30 CL         63.6164   90.4342   16.3082 Cl      1  UNL1       -0.0810
     31 O          61.1880   85.9752   11.4231 O.3     1  UNL1       -0.4526
     32 C          62.2734   84.9553   11.2448 C.ar    1  UNL1        0.1410
     33 C          62.8626   84.7169    9.8862 C.ar    1  UNL1        0.0371
     34 C          63.9480   83.6970    9.7078 C.ar    1  UNL1        0.0028
     35 C          64.4441   82.9155   10.8881 C.ar    1  UNL1       -0.0044
     36 C          63.8548   83.1538   12.2468 C.ar    1  UNL1       -0.0232
     37 C          62.7694   84.1737   12.4251 C.ar    1  UNL1        0.0084
     38 C          62.1802   84.4121   13.7838 C.3     1  UNL1        0.0291
     39 C          62.6762   83.6306   14.9640 C.3     1  UNL1        0.0051
     40 C          63.7616   82.6107   14.7857 C.3     1  UNL1        0.0050
     41 C          64.3509   82.3723   13.4271 C.3     1  UNL1        0.0261
@<TRIPOS>UNITY_ATOM_ATTR
14 1
charge -1
@<TRIPOS>BOND
     1    16    17    1
     2    17     7    1
     3     7     8   ar
     4     8     9   ar
     5     9    10   ar
     6    10     1    1
     7     1     2   ar
     8     2     3   ar
     9     3     4   ar
    10     4    31    1
    11    31    32    1
    12    32    33   ar
    13    33    34   ar
    14    34    35   ar
    15    35    36   ar
    16    36    37   ar
    17    37    38    1
    18    38    39    1
    19    39    40    1
    20    40    41    1
    21     4     5   ar
    22     5    18    1
    23    18    19   am
    24    19    20    2
    25    19    21   am
    26    21    24    1
    27    24    25   ar
    28    25    26   ar
    29    26    27   ar
    30    27    28   ar
    31    28    29   ar
    32    29    30    1
    33     5     6   ar
    34    10    11   ar
    35    11    12   ar
    36    12    13    1
    37    13    14   ar
    38    13    15   ar
    39    12     7   ar
    40     6     1   ar
    41    37    32   ar
    42    29    24   ar
    43    41    36    1
    44    18    22    1
    45    21    23    1
@<TRIPOS>MOLECULE
*****
 41 45 0 0 0
SMALL
GASTEIGER

@<TRIPOS>ATOM
      1 C          60.0170   89.1381    7.2915 C.ar    1  UNL1        0.0014
      2 C          59.9314   87.6636    7.0300 C.ar    1  UNL1        0.0032
      3 C          60.1887   86.6886    8.1406 C.ar    1  UNL1        0.0388
      4 C          60.5316   87.1883    9.5127 C.ar    1  UNL1        0.1586
      5 C          60.6172   88.6629    9.7743 C.ar    1  UNL1        0.0865
      6 C          60.3599   89.6377    8.6637 C.ar    1  UNL1        0.0178
      7 C          59.2450   92.0627    3.9598 C.ar    1  UNL1        0.1397
      8 C          58.1022   91.5405    4.7792 C.ar    1  UNL1        0.0369
      9 C          58.3595   90.5657    5.8897 C.ar    1  UNL1        0.0031
     10 C          59.7597   90.1129    6.1810 C.ar    1  UNL1        0.0003
     11 C          60.9024   90.6352    5.3616 C.ar    1  UNL1        0.0042
     12 C          60.6451   91.6101    4.2510 C.ar    1  UNL1        0.0479
     13 C          61.7878   92.1323    3.4316 C.2     1  UNL1        0.0758
     14 O          63.1648   91.5677    3.6192 O.co2   1  UNL1       -0.5445
     15 O          61.5536   93.2191    2.4246 O.co2   1  UNL1       -0.5445
     16 C          58.9191   92.5567    1.4300 C.3     1  UNL1        0.2525
     17 O          58.9877   93.0376    2.8492 O.3     1  UNL1       -0.4714
     18 N          60.9601   89.1625   11.1464 N.am    1  UNL1       -0.2656
     19 C          62.2934   89.8009   11.4006 C.2     1  UNL1        0.3083
     20 O          63.2838   89.9396   10.2827 O.2     1  UNL1       -0.2521
     21 N          62.6363   90.3005   12.7728 N.am    1  UNL1       -0.2673
     22 H          60.3100   89.0715   11.8801 H       1  UNL1        0.1565
     23 H          61.9862   90.2095   13.5065 H       1  UNL1        0.1564
     24 C          63.9696   90.9389   13.0270 C.ar    1  UNL1        0.0622
     25 C          64.4728   92.0149   12.1110 C.ar    1  UNL1        0.0156
     26 C          65.8063   92.6533   12.3653 C.ar    1  UNL1        0.0013
     27 C          66.6363   92.2157   13.5355 C.ar    1  UNL1        0.0009
     28 C          66.1331   91.1397   14.4515 C.ar    1  UNL1        0.0126
     29 C          64.7998   90.5013   14.1972 C.ar    1  UNL1        0.0711
     30 CL         64.2965   89.4253   15.1132 Cl      1  UNL1       -0.0810
     31 O          60.7889   86.2134   10.6233 O.3     1  UNL1       -0.4526
     32 C          61.9590   85.2782   10.5442 C.ar    1  UNL1        0.1410
     33 C          62.5609   84.9409    9.2124 C.ar    1  UNL1        0.0371
     34 C          63.7310   84.0057    9.1334 C.ar    1  UNL1        0.0028
     35 C          64.2992   83.4078   10.3862 C.ar    1  UNL1       -0.0044
     36 C          63.6973   83.7451   11.7182 C.ar    1  UNL1       -0.0232
     37 C          62.5272   84.6803   11.7972 C.ar    1  UNL1        0.0084
     38 C          61.9253   85.0176   13.1290 C.3     1  UNL1        0.0291
     39 C          62.4935   84.4198   14.3819 C.3     1  UNL1        0.0051
     40 C          63.6636   83.4846   14.3028 C.3     1  UNL1        0.0050
     41 C          64.2655   83.1473   12.9710 C.3     1  UNL1        0.0261
@<TRIPOS>UNITY_ATOM_ATTR
14 1
charge -1
@<TRIPOS>BOND
     1    16    17    1
     2    17     7    1
     3     7     8   ar
     4     8     9   ar
     5     9    10   ar
     6    10     1    1
     7     1     2   ar
     8     2     3   ar
     9     3     4   ar
    10     4    31    1
    11    31    32    1
    12    32    33   ar
    13    33    34   ar
    14    34    35   ar
    15    35    36   ar
    16    36    37   ar
    17    37    38    1
    18    38    39    1
    19    39    40    1
    20    40    41    1
    21     4     5   ar
    22     5    18    1
    23    18    19   am
    24    19    20    2
    25    19    21   am
    26    21    24    1
    27    24    25   ar
    28    25    26   ar
    29    26    27   ar
    30    27    28   ar
    31    28    29   ar
    32    29    30    1
    33     5     6   ar
    34    10    11   ar
    35    11    12   ar
    36    12    13    1
    37    13    14   ar
    38    13    15   ar
    39    12     7   ar
    40     6     1   ar
    41    37    32   ar
    42    29    24   ar
    43    41    36    1
    44    18    22    1
    45    21    23    1
@<TRIPOS>MOLECULE
*****
 41 45 0 0 0
SMALL
GASTEIGER

@<TRIPOS>ATOM
      1 C          64.5045   89.0327   13.7613 C.ar    1  UNL1        0.0014
      2 C          65.0088   88.1777   14.8858 C.ar    1  UNL1        0.0032
      3 C          64.5190   86.7676   15.0337 C.ar    1  UNL1        0.0388
      4 C          63.5250   86.2126   14.0570 C.ar    1  UNL1        0.1586
      5 C          63.0207   87.0677   12.9325 C.ar    1  UNL1        0.0865
      6 C          63.5105   88.4777   12.7846 C.ar    1  UNL1        0.0178
      7 C          65.9738   93.2629   13.3177 C.ar    1  UNL1        0.1397
      8 C          64.9397   92.7252   12.3735 C.ar    1  UNL1        0.0369
      9 C          64.4499   91.3152   12.5214 C.ar    1  UNL1        0.0031
     10 C          64.9943   90.4427   13.6135 C.ar    1  UNL1        0.0003
     11 C          66.0284   90.9804   14.5576 C.ar    1  UNL1        0.0042
     12 C          66.5182   92.3905   14.4097 C.ar    1  UNL1        0.0479
     13 C          67.5523   92.9282   15.3539 C.2     1  UNL1        0.0758
     14 O          67.1892   93.2126   16.7812 O.co2   1  UNL1       -0.5445
     15 O          68.9497   93.1814   14.8708 O.co2   1  UNL1       -0.5445
     16 C          66.3589   95.3682   11.8448 C.3     1  UNL1        0.2525
     17 O          66.4636   94.6729   13.1699 O.3     1  UNL1       -0.4714
     18 N          62.0267   86.5127   11.9558 N.am    1  UNL1       -0.2656
     19 C          61.5525   87.3543   10.8083 C.2     1  UNL1        0.3083
     20 O          62.0723   88.7509   10.6375 O.2     1  UNL1       -0.2521
     21 N          60.5585   86.7993    9.8316 N.am    1  UNL1       -0.2673
     22 H          61.6856   85.5960   12.0679 H       1  UNL1        0.1565
     23 H          60.2173   85.8826    9.9438 H       1  UNL1        0.1564
     24 C          60.0842   87.6409    8.6842 C.ar    1  UNL1        0.0622
     25 C          59.9617   89.1273    8.8446 C.ar    1  UNL1        0.0156
     26 C          59.4874   89.9689    7.6971 C.ar    1  UNL1        0.0013
     27 C          59.1357   89.3242    6.3892 C.ar    1  UNL1        0.0009
     28 C          59.2583   87.8378    6.2288 C.ar    1  UNL1        0.0126
     29 C          59.7325   86.9962    7.3762 C.ar    1  UNL1        0.0711
     30 CL         59.8551   85.5098    7.2158 Cl      1  UNL1       -0.0810
     31 O          63.0352   84.8025   14.2049 O.3     1  UNL1       -0.4526
     32 C          63.3613   83.7814   13.1556 C.ar    1  UNL1        0.1410
     33 C          64.2787   84.1362   12.0232 C.ar    1  UNL1        0.0371
     34 C          64.6047   83.1151   10.9739 C.ar    1  UNL1        0.0028
     35 C          64.0133   81.7392   11.0570 C.ar    1  UNL1       -0.0044
     36 C          63.0958   81.3843   12.1894 C.ar    1  UNL1       -0.0232
     37 C          62.7698   82.4054   13.2387 C.ar    1  UNL1        0.0084
     38 C          61.8523   82.0506   14.3711 C.3     1  UNL1        0.0291
     39 C          61.2609   80.6746   14.4542 C.3     1  UNL1        0.0051
     40 C          61.5869   79.6535   13.4049 C.3     1  UNL1        0.0050
     41 C          62.5044   80.0083   12.2725 C.3     1  UNL1        0.0261
@<TRIPOS>UNITY_ATOM_ATTR
14 1
charge -1
@<TRIPOS>BOND
     1    16    17    1
     2    17     7    1
     3     7     8   ar
     4     8     9   ar
     5     9    10   ar
     6    10     1    1
     7     1     2   ar
     8     2     3   ar
     9     3     4   ar
    10     4    31    1
    11    31    32    1
    12    32    33   ar
    13    33    34   ar
    14    34    35   ar
    15    35    36   ar
    16    36    37   ar
    17    37    38    1
    18    38    39    1
    19    39    40    1
    20    40    41    1
    21     4     5   ar
    22     5    18    1
    23    18    19   am
    24    19    20    2
    25    19    21   am
    26    21    24    1
    27    24    25   ar
    28    25    26   ar
    29    26    27   ar
    30    27    28   ar
    31    28    29   ar
    32    29    30    1
    33     5     6   ar
    34    10    11   ar
    35    11    12   ar
    36    12    13    1
    37    13    14   ar
    38    13    15   ar
    39    12     7   ar
    40     6     1   ar
    41    37    32   ar
    42    29    24   ar
    43    41    36    1
    44    18    22    1
    45    21    23    1
@<TRIPOS>MOLECULE
*****
 41 45 0 0 0
SMALL
GASTEIGER

@<TRIPOS>ATOM
      1 C          62.2172   89.1423   11.0526 C.ar    1  UNL1        0.0014
      2 C          62.6658   90.4702   11.5867 C.ar    1  UNL1        0.0032
      3 C          63.5661   90.5314   12.7850 C.ar    1  UNL1        0.0388
      4 C          64.0177   89.2645   13.4491 C.ar    1  UNL1        0.1586
      5 C          63.5691   87.9365   12.9150 C.ar    1  UNL1        0.0865
      6 C          62.6688   87.8754   11.7168 C.ar    1  UNL1        0.0178
      7 C          59.5165   88.9590    7.4578 C.ar    1  UNL1        0.1397
      8 C          59.9956   90.2853    7.9691 C.ar    1  UNL1        0.0369
      9 C          60.8959   90.3464    9.1674 C.ar    1  UNL1        0.0031
     10 C          61.3170   89.0812    9.8544 C.ar    1  UNL1        0.0003
     11 C          60.8379   87.7549    9.3430 C.ar    1  UNL1        0.0042
     12 C          59.9377   87.6939    8.1447 C.ar    1  UNL1        0.0479
     13 C          59.4585   86.3676    7.6334 C.2     1  UNL1        0.0758
     14 O          60.4468   85.3519    7.1418 O.co2   1  UNL1       -0.5445
     15 O          57.9911   86.0570    7.6137 O.co2   1  UNL1       -0.5445
     16 C          58.3484   90.1377    5.4587 C.3     1  UNL1        0.2525
     17 O          58.6163   88.8979    6.2596 O.3     1  UNL1       -0.4714
     18 N          64.0207   86.6697   13.5792 N.am    1  UNL1       -0.2656
     19 C          63.3398   85.3717   13.2603 C.2     1  UNL1        0.3083
     20 O          62.2074   85.3406   12.2772 O.2     1  UNL1       -0.2521
     21 N          63.7915   84.1049   13.9244 N.am    1  UNL1       -0.2673
     22 H          64.7640   86.6901   14.2245 H       1  UNL1        0.1565
     23 H          64.5347   84.1253   14.5697 H       1  UNL1        0.1564
     24 C          63.1106   82.8069   13.6055 C.ar    1  UNL1        0.0622
     25 C          62.0404   82.2784   14.5139 C.ar    1  UNL1        0.0156
     26 C          61.3595   80.9803   14.1949 C.ar    1  UNL1        0.0013
     27 C          61.7489   80.2110   12.9676 C.ar    1  UNL1        0.0009
     28 C          62.8192   80.7395   12.0592 C.ar    1  UNL1        0.0126
     29 C          63.5000   82.0375   12.3781 C.ar    1  UNL1        0.0711
     30 CL         64.5703   82.5660   11.4697 Cl      1  UNL1       -0.0810
     31 O          64.9179   89.3256   14.6474 O.3     1  UNL1       -0.4526
     32 C          65.0464   90.6021   15.4247 C.ar    1  UNL1        0.1410
     33 C          63.9422   91.0356   16.3426 C.ar    1  UNL1        0.0371
     34 C          64.0706   92.3120   17.1199 C.ar    1  UNL1        0.0028
     35 C          65.3033   93.1550   16.9792 C.ar    1  UNL1       -0.0044
     36 C          66.4077   92.7215   16.0612 C.ar    1  UNL1       -0.0232
     37 C          66.2792   91.4450   15.2840 C.ar    1  UNL1        0.0084
     38 C          67.3834   91.0115   14.3660 C.3     1  UNL1        0.0291
     39 C          68.6161   91.8544   14.2253 C.3     1  UNL1        0.0051
     40 C          68.7446   93.1309   15.0026 C.3     1  UNL1        0.0050
     41 C          67.6404   93.5644   15.9206 C.3     1  UNL1        0.0261
@<TRIPOS>UNITY_ATOM_ATTR
14 1
charge -1
@<TRIPOS>BOND
     1    16    17    1
     2    17     7    1
     3     7     8   ar
     4     8     9   ar
     5     9    10   ar
     6    10     1    1
     7     1     2   ar
     8     2     3   ar
     9     3     4   ar
    10     4    31    1
    11    31    32    1
    12    32    33   ar
    13    33    34   ar
    14    34    35   ar
    15    35    36   ar
    16    36    37   ar
    17    37    38    1
    18    38    39    1
    19    39    40    1
    20    40    41    1
    21     4     5   ar
    22     5    18    1
    23    18    19   am
    24    19    20    2
    25    19    21   am
    26    21    24    1
    27    24    25   ar
    28    25    26   ar
    29    26    27   ar
    30    27    28   ar
    31    28    29   ar
    32    29    30    1
    33     5     6   ar
    34    10    11   ar
    35    11    12   ar
    36    12    13    1
    37    13    14   ar
    38    13    15   ar
    39    12     7   ar
    40     6     1   ar
    41    37    32   ar
    42    29    24   ar
    43    41    36    1
    44    18    22    1
    45    21    23    1
@<TRIPOS>MOLECULE
*****
 41 45 0 0 0
SMALL
GASTEIGER

@<TRIPOS>ATOM
      1 C          65.6619   92.5431   12.3720 C.ar    1  UNL1        0.0014
      2 C          66.4328   92.2242   13.6186 C.ar    1  UNL1        0.0032
      3 C          65.8501   91.2978   14.6445 C.ar    1  UNL1        0.0388
      4 C          64.4965   90.6903   14.4237 C.ar    1  UNL1        0.1586
      5 C          63.7256   91.0092   13.1770 C.ar    1  UNL1        0.0865
      6 C          64.3083   91.9356   12.1512 C.ar    1  UNL1        0.0178
      7 C          67.4101   95.3222    9.2947 C.ar    1  UNL1        0.1397
      8 C          66.6063   95.8751   10.4341 C.ar    1  UNL1        0.0369
      9 C          66.0236   94.9487   11.4599 C.ar    1  UNL1        0.0031
     10 C          66.2447   93.4694   11.3463 C.ar    1  UNL1        0.0003
     11 C          67.0484   92.9165   10.2068 C.ar    1  UNL1        0.0042
     12 C          67.6312   93.8429    9.1810 C.ar    1  UNL1        0.0479
     13 C          68.4349   93.2901    8.0416 C.2     1  UNL1        0.0758
     14 O          68.4121   93.9735    6.7066 O.co2   1  UNL1       -0.5445
     15 O          69.2615   92.0537    8.2373 O.co2   1  UNL1       -0.5445
     16 C          67.1109   96.8525    7.2165 C.3     1  UNL1        0.2525
     17 O          67.9928   96.2485    8.2689 O.3     1  UNL1       -0.4714
     18 N          62.3720   90.4018   12.9562 N.am    1  UNL1       -0.2656
     19 C          62.0748   89.6771   11.6770 C.2     1  UNL1        0.3083
     20 O          63.1312   89.5599   10.6186 O.2     1  UNL1       -0.2521
     21 N          60.7212   89.0696   11.4562 N.am    1  UNL1       -0.2673
     22 H          61.6787   90.4787   13.6509 H       1  UNL1        0.1565
     23 H          60.0279   89.1466   12.1509 H       1  UNL1        0.1564
     24 C          60.4240   88.3450   10.1770 C.ar    1  UNL1        0.0622
     25 C          59.8502   89.0904    9.0086 C.ar    1  UNL1        0.0156
     26 C          59.5530   88.3656    7.7293 C.ar    1  UNL1        0.0013
     27 C          59.8295   86.8955    7.6185 C.ar    1  UNL1        0.0009
     28 C          60.4032   86.1501    8.7869 C.ar    1  UNL1        0.0126
     29 C          60.7005   86.8748   10.0661 C.ar    1  UNL1        0.0711
     30 CL         61.2742   86.1294   11.2345 Cl      1  UNL1       -0.0810
     31 O          63.9138   89.7640   15.4495 O.3     1  UNL1       -0.4526
     32 C          63.8564   88.2892   15.1817 C.ar    1  UNL1        0.1410
     33 C          64.2421   87.7560   13.8338 C.ar    1  UNL1        0.0371
     34 C          64.1847   86.2812   13.5661 C.ar    1  UNL1        0.0028
     35 C          63.7415   85.3396   14.6463 C.ar    1  UNL1       -0.0044
     36 C          63.3557   85.8727   15.9943 C.ar    1  UNL1       -0.0232
     37 C          63.4131   87.3475   16.2620 C.ar    1  UNL1        0.0084
     38 C          63.0274   87.8807   17.6099 C.3     1  UNL1        0.0291
     39 C          62.5842   86.9390   18.6901 C.3     1  UNL1        0.0051
     40 C          62.5268   85.4642   18.4224 C.3     1  UNL1        0.0050
     41 C          62.9125   84.9311   17.0745 C.3     1  UNL1        0.0261
@<TRIPOS>UNITY_ATOM_ATTR
14 1
charge -1
@<TRIPOS>BOND
     1    16    17    1
     2    17     7    1
     3     7     8   ar
     4     8     9   ar
     5     9    10   ar
     6    10     1    1
     7     1     2   ar
     8     2     3   ar
     9     3     4   ar
    10     4    31    1
    11    31    32    1
    12    32    33   ar
    13    33    34   ar
    14    34    35   ar
    15    35    36   ar
    16    36    37   ar
    17    37    38    1
    18    38    39    1
    19    39    40    1
    20    40    41    1
    21     4     5   ar
    22     5    18    1
    23    18    19   am
    24    19    20    2
    25    19    21   am
    26    21    24    1
    27    24    25   ar
    28    25    26   ar
    29    26    27   ar
    30    27    28   ar
    31    28    29   ar
    32    29    30    1
    33     5     6   ar
    34    10    11   ar
    35    11    12   ar
    36    12    13    1
    37    13    14   ar
    38    13    15   ar
    39    12     7   ar
    40     6     1   ar
    41    37    32   ar
    42    29    24   ar
    43    41    36    1
    44    18    22    1
    45    21    23    1
