@<TRIPOS>MOLECULE
*****
 26 28 0 0 0
SMALL
GASTEIGER

@<TRIPOS>ATOM
      1 C          64.0664   89.2825   14.5664 C.3     1  UNL1        0.0290
      2 C          63.4690   89.4056   15.9368 C.3     1  UNL1        0.0870
      3 C          63.3437   88.0265   16.5134 C.2     1  UNL1        0.2258
      4 O          62.7948   87.6832   17.8664 O.2     1  UNL1       -0.2749
      5 N          63.8636   87.0511   15.4993 N.am    1  UNL1       -0.2757
      6 C          64.3103   87.8274   14.2960 C.3     1  UNL1        0.0940
      7 C          63.1359   89.8593   12.9789 C.3     1  UNL1        0.0002
      8 C          64.3671   90.4156   13.6306 C.3     1  UNL1        0.0055
      9 C          65.4939   90.5784   14.6073 C.3     1  UNL1        0.0254
     10 C          66.4937   91.6811   14.4220 C.3     1  UNL1        0.1508
     11 S          66.3668   92.6210   13.2599 S.O2    1  UNL1       -0.0100
     12 O          66.6675   93.7541   12.3241 O.2     1  UNL1       -0.1730
     13 O          67.5980   93.1773   13.9116 O.2     1  UNL1       -0.1730
     14 C          65.2401   92.4582   12.2832 C.3     1  UNL1        0.1508
     15 C          64.2403   91.3555   12.4685 C.3     1  UNL1        0.0254
     16 C          63.9260   85.5611   15.6603 C.3     1  UNL1        0.1406
     17 C          63.7351   84.6694   14.4693 C.3     1  UNL1        0.2268
     18 O          62.5318   84.8397   13.5901 O.3     1  UNL1       -0.4735
     19 C          62.6944   84.9037   12.1003 C.ar    1  UNL1        0.1410
     20 C          63.4065   83.8003   11.3755 C.ar    1  UNL1        0.0394
     21 C          63.5691   83.8643    9.8857 C.ar    1  UNL1        0.0351
     22 C          63.0197   85.0317    9.1208 C.ar    1  UNL1        0.1676
     23 F          63.1823   85.0957    7.6309 F       1  UNL1       -0.2018
     24 C          62.3076   86.1352    9.8456 C.ar    1  UNL1        0.1704
     25 F          61.7582   87.3026    9.0806 F       1  UNL1       -0.2017
     26 C          62.1450   86.0712   11.3353 C.ar    1  UNL1        0.0688
@<TRIPOS>BOND
     1     7     8    1
     2     1     8    1
     3     1     2    1
     4     2     3    1
     5     3     4    2
     6     3     5   am
     7     5    16    1
     8    16    17    1
     9    17    18    1
    10    18    19    1
    11    19    20   ar
    12    20    21   ar
    13    21    22   ar
    14    22    23    1
    15    22    24   ar
    16    24    25    1
    17    24    26   ar
    18     5     6    1
    19     8     9    1
    20     9    10    1
    21    10    11    1
    22    11    12    2
    23    11    13    2
    24    11    14    1
    25    14    15    1
    26    15     8    1
    27     6     1    1
    28    26    19   ar
@<TRIPOS>MOLECULE
*****
 26 28 0 0 0
SMALL
GASTEIGER

@<TRIPOS>ATOM
      1 C          64.1021   89.3130   14.5818 C.3     1  UNL1        0.0290
      2 C          63.4610   89.4366   15.9323 C.3     1  UNL1        0.0870
      3 C          63.3806   88.0651   16.5344 C.2     1  UNL1        0.2258
      4 O          62.8091   87.7246   17.8788 O.2     1  UNL1       -0.2749
      5 N          63.9719   87.0939   15.5561 N.am    1  UNL1       -0.2757
      6 C          64.4178   87.8652   14.3493 C.3     1  UNL1        0.0940
      7 C          63.1351   89.8748   13.0109 C.3     1  UNL1        0.0002
      8 C          64.3788   90.4395   13.6308 C.3     1  UNL1        0.0055
      9 C          65.5265   90.6130   14.5810 C.3     1  UNL1        0.0254
     10 C          66.5189   91.7168   14.3649 C.3     1  UNL1        0.1508
     11 S          66.3637   92.6472   13.1986 S.O2    1  UNL1       -0.0100
     12 O          66.6404   93.7737   12.2476 O.2     1  UNL1       -0.1730
     13 O          67.6074   93.2119   13.8185 O.2     1  UNL1       -0.1730
     14 C          65.2161   92.4737   12.2484 C.3     1  UNL1        0.1508
     15 C          64.2237   91.3699   12.4645 C.3     1  UNL1        0.0254
     16 C          64.0956   85.6118   15.7504 C.3     1  UNL1        0.1406
     17 C          62.8725   84.7446   15.7043 C.3     1  UNL1        0.2268
     18 O          62.1677   84.5106   14.4011 O.3     1  UNL1       -0.4735
     19 C          62.3198   83.1978   13.6913 C.ar    1  UNL1        0.1410
     20 C          61.9390   81.9226   14.3833 C.ar    1  UNL1        0.0394
     21 C          62.0910   80.6100   13.6735 C.ar    1  UNL1        0.0351
     22 C          62.6239   80.5725   12.2718 C.ar    1  UNL1        0.1676
     23 F          62.7759   79.2597   11.5621 F       1  UNL1       -0.2018
     24 C          63.0046   81.8477   11.5799 C.ar    1  UNL1        0.1704
     25 F          63.5375   81.8102   10.1782 F       1  UNL1       -0.2017
     26 C          62.8526   83.1603   12.2896 C.ar    1  UNL1        0.0688
@<TRIPOS>BOND
     1     7     8    1
     2     1     8    1
     3     1     2    1
     4     2     3    1
     5     3     4    2
     6     3     5   am
     7     5    16    1
     8    16    17    1
     9    17    18    1
    10    18    19    1
    11    19    20   ar
    12    20    21   ar
    13    21    22   ar
    14    22    23    1
    15    22    24   ar
    16    24    25    1
    17    24    26   ar
    18     5     6    1
    19     8     9    1
    20     9    10    1
    21    10    11    1
    22    11    12    2
    23    11    13    2
    24    11    14    1
    25    14    15    1
    26    15     8    1
    27     6     1    1
    28    26    19   ar
@<TRIPOS>MOLECULE
*****
 26 28 0 0 0
SMALL
GASTEIGER

@<TRIPOS>ATOM
      1 C          62.4314   85.5732   10.7528 C.3     1  UNL1        0.0290
      2 C          63.2402   84.6176    9.9265 C.3     1  UNL1        0.0870
      3 C          63.7568   83.5417   10.8350 C.2     1  UNL1        0.2258
      4 O          64.6127   82.3793   10.4273 O.2     1  UNL1       -0.2749
      5 N          63.2674   83.8323   12.2228 N.am    1  UNL1       -0.2757
      6 C          62.4482   85.0879   12.1720 C.3     1  UNL1        0.0940
      7 C          62.5067   87.3934   11.3851 C.3     1  UNL1        0.0002
      8 C          61.7291   86.7990   10.2485 C.3     1  UNL1        0.0055
      9 C          61.1953   85.7788    9.2870 C.3     1  UNL1        0.0254
     10 C          60.2294   86.1907    8.2159 C.3     1  UNL1        0.1508
     11 S          59.7972   87.6230    8.1063 S.O2    1  UNL1       -0.0100
     12 O          59.0949   88.8487    7.6020 O.2     1  UNL1       -0.1730
     13 O          59.0195   87.0285    6.9697 O.2     1  UNL1       -0.1730
     14 C          60.3309   88.6431    9.0678 C.3     1  UNL1        0.1508
     15 C          61.2968   88.2311   10.1388 C.3     1  UNL1        0.0254
     16 C          63.5478   83.0115   13.4466 C.3     1  UNL1        0.1406
     17 C          63.1301   83.5123   14.7975 C.3     1  UNL1        0.2268
     18 O          64.0914   84.3030   15.6345 O.3     1  UNL1       -0.4735
     19 C          63.8672   85.7705   15.8497 C.ar    1  UNL1        0.1410
     20 C          63.1288   86.2460   17.0656 C.ar    1  UNL1        0.0394
     21 C          62.9046   87.7135   17.2808 C.ar    1  UNL1        0.0351
     22 C          63.4188   88.7054   16.2799 C.ar    1  UNL1        0.1676
     23 F          63.1946   90.1729   16.4951 F       1  UNL1       -0.2018
     24 C          64.1572   88.2299   15.0640 C.ar    1  UNL1        0.1704
     25 F          64.6714   89.2218   14.0631 F       1  UNL1       -0.2017
     26 C          64.3814   86.7625   14.8488 C.ar    1  UNL1        0.0688
@<TRIPOS>BOND
     1     7     8    1
     2     1     8    1
     3     1     2    1
     4     2     3    1
     5     3     4    2
     6     3     5   am
     7     5    16    1
     8    16    17    1
     9    17    18    1
    10    18    19    1
    11    19    20   ar
    12    20    21   ar
    13    21    22   ar
    14    22    23    1
    15    22    24   ar
    16    24    25    1
    17    24    26   ar
    18     5     6    1
    19     8     9    1
    20     9    10    1
    21    10    11    1
    22    11    12    2
    23    11    13    2
    24    11    14    1
    25    14    15    1
    26    15     8    1
    27     6     1    1
    28    26    19   ar
@<TRIPOS>MOLECULE
*****
 26 28 0 0 0
SMALL
GASTEIGER

@<TRIPOS>ATOM
      1 C          61.8688   86.2301    9.4941 C.3     1  UNL1        0.0290
      2 C          60.8048   86.2879    8.4382 C.3     1  UNL1        0.0870
      3 C          60.1492   87.6349    8.5141 C.2     1  UNL1        0.2258
      4 O          59.0311   88.1217    7.6407 O.2     1  UNL1       -0.2749
      5 N          60.8079   88.4096    9.6169 N.am    1  UNL1       -0.2757
      6 C          61.8707   87.5414   10.2225 C.3     1  UNL1        0.0940
      7 C          62.9838   85.2118    8.2947 C.3     1  UNL1        0.0002
      8 C          62.7722   85.0655    9.7726 C.3     1  UNL1        0.0055
      9 C          62.2469   85.3237   11.1537 C.3     1  UNL1        0.0254
     10 C          62.6985   84.4682   12.3000 C.3     1  UNL1        0.1508
     11 S          63.6754   83.3544   12.0652 S.O2    1  UNL1       -0.0100
     12 O          64.5788   82.1898   12.3437 O.2     1  UNL1       -0.1730
     13 O          63.4638   83.2082   13.5430 O.2     1  UNL1       -0.1730
     14 C          64.2007   83.0962   10.6842 C.3     1  UNL1        0.1508
     15 C          63.7491   83.9517    9.5379 C.3     1  UNL1        0.0254
     16 C          60.4642   89.8071   10.0397 C.3     1  UNL1        0.1406
     17 C          61.2799   90.4933   11.0951 C.3     1  UNL1        0.2268
     18 O          62.6817   90.9325   10.7922 O.3     1  UNL1       -0.4735
     19 C          63.6938   91.0246   11.8955 C.ar    1  UNL1        0.1410
     20 C          63.6455   90.0566   13.0403 C.ar    1  UNL1        0.0394
     21 C          64.6576   90.1487   14.1435 C.ar    1  UNL1        0.0351
     22 C          65.7180   91.2087   14.1019 C.ar    1  UNL1        0.1676
     23 F          66.7301   91.3008   15.2053 F       1  UNL1       -0.2018
     24 C          65.7664   92.1767   12.9571 C.ar    1  UNL1        0.1704
     25 F          66.8268   93.2368   12.9156 F       1  UNL1       -0.2017
     26 C          64.7543   92.0846   11.8539 C.ar    1  UNL1        0.0688
@<TRIPOS>BOND
     1     7     8    1
     2     1     8    1
     3     1     2    1
     4     2     3    1
     5     3     4    2
     6     3     5   am
     7     5    16    1
     8    16    17    1
     9    17    18    1
    10    18    19    1
    11    19    20   ar
    12    20    21   ar
    13    21    22   ar
    14    22    23    1
    15    22    24   ar
    16    24    25    1
    17    24    26   ar
    18     5     6    1
    19     8     9    1
    20     9    10    1
    21    10    11    1
    22    11    12    2
    23    11    13    2
    24    11    14    1
    25    14    15    1
    26    15     8    1
    27     6     1    1
    28    26    19   ar
@<TRIPOS>MOLECULE
*****
 26 28 0 0 0
SMALL
GASTEIGER

@<TRIPOS>ATOM
      1 C          63.6384   88.1990   15.7778 C.3     1  UNL1        0.0290
      2 C          63.2540   89.3241   16.6924 C.3     1  UNL1        0.0870
      3 C          63.6470   90.6126   16.0326 C.2     1  UNL1        0.2258
      4 O          63.4478   91.9883   16.5962 O.2     1  UNL1       -0.2749
      5 N          64.2743   90.2838   14.7103 N.am    1  UNL1       -0.2757
      6 C          64.2689   88.7921   14.5529 C.3     1  UNL1        0.0940
      7 C          62.7845   87.3181   17.2656 C.3     1  UNL1        0.0002
      8 C          63.4289   86.7373   16.0419 C.3     1  UNL1        0.0055
      9 C          64.1461   86.6642   14.7264 C.3     1  UNL1        0.0254
     10 C          64.4300   85.3312   14.1001 C.3     1  UNL1        0.1508
     11 S          63.9967   84.0712   14.7891 S.O2    1  UNL1       -0.0100
     12 O          63.7872   82.6096   15.0532 O.2     1  UNL1       -0.1730
     13 O          64.6411   83.4904   13.5654 O.2     1  UNL1       -0.1730
     14 C          63.2796   84.1444   16.1045 C.3     1  UNL1        0.1508
     15 C          62.9956   85.4774   16.7309 C.3     1  UNL1        0.0254
     16 C          64.8125   91.2730   13.7195 C.3     1  UNL1        0.1406
     17 C          65.9503   92.1731   14.1006 C.3     1  UNL1        0.2268
     18 O          66.0332   93.5589   13.5325 O.3     1  UNL1       -0.4735
     19 C          66.4428   93.7603   12.1036 C.ar    1  UNL1        0.1410
     20 C          66.2124   95.0841   11.4368 C.ar    1  UNL1        0.0394
     21 C          66.6221   95.2855   10.0080 C.ar    1  UNL1        0.0351
     22 C          67.2621   94.1632    9.2459 C.ar    1  UNL1        0.1676
     23 F          67.6717   94.3647    7.8170 F       1  UNL1       -0.2018
     24 C          67.4925   92.8395    9.9127 C.ar    1  UNL1        0.1704
     25 F          68.1325   91.7172    9.1506 F       1  UNL1       -0.2017
     26 C          67.0829   92.6380   11.3415 C.ar    1  UNL1        0.0688
@<TRIPOS>BOND
     1     7     8    1
     2     1     8    1
     3     1     2    1
     4     2     3    1
     5     3     4    2
     6     3     5   am
     7     5    16    1
     8    16    17    1
     9    17    18    1
    10    18    19    1
    11    19    20   ar
    12    20    21   ar
    13    21    22   ar
    14    22    23    1
    15    22    24   ar
    16    24    25    1
    17    24    26   ar
    18     5     6    1
    19     8     9    1
    20     9    10    1
    21    10    11    1
    22    11    12    2
    23    11    13    2
    24    11    14    1
    25    14    15    1
    26    15     8    1
    27     6     1    1
    28    26    19   ar
@<TRIPOS>MOLECULE
*****
 26 28 0 0 0
SMALL
GASTEIGER

@<TRIPOS>ATOM
      1 C          63.4223   89.9240   12.4564 C.3     1  UNL1        0.0290
      2 C          62.4617   90.6368   11.5512 C.3     1  UNL1        0.0870
      3 C          61.5741   89.6083   10.9152 C.2     1  UNL1        0.2258
      4 O          60.4686   89.8805    9.9386 O.2     1  UNL1       -0.2749
      5 N          61.9861   88.2600   11.4273 N.am    1  UNL1       -0.2757
      6 C          63.1284   88.4551   12.3798 C.3     1  UNL1        0.0940
      7 C          64.1399   89.4014   14.1683 C.3     1  UNL1        0.0002
      8 C          64.4894   90.5672   13.2915 C.3     1  UNL1        0.0055
      9 C          64.4684   91.5097   12.1247 C.3     1  UNL1        0.0254
     10 C          65.3930   92.6905   12.0975 C.3     1  UNL1        0.1508
     11 S          66.3388   92.9288   13.2372 S.O2    1  UNL1       -0.0100
     12 O          67.4059   93.5720   14.0723 O.2     1  UNL1       -0.1730
     13 O          66.6883   94.0946   12.3605 O.2     1  UNL1       -0.1730
     14 C          66.3598   91.9864   14.4039 C.3     1  UNL1        0.1508
     15 C          65.4352   90.8056   14.4311 C.3     1  UNL1        0.0254
     16 C          61.3650   86.9470   11.0527 C.3     1  UNL1        0.1406
     17 C          62.2336   85.7484   10.8103 C.3     1  UNL1        0.2268
     18 O          63.0207   85.1519   11.9393 O.3     1  UNL1       -0.4735
     19 C          62.8122   83.7169   12.3230 C.ar    1  UNL1        0.1410
     20 C          62.4216   83.3654   13.7280 C.ar    1  UNL1        0.0394
     21 C          62.2130   81.9304   14.1116 C.ar    1  UNL1        0.0351
     22 C          62.3951   80.8469   13.0904 C.ar    1  UNL1        0.1676
     23 F          62.1866   79.4118   13.4742 F       1  UNL1       -0.2018
     24 C          62.7858   81.1984   11.6855 C.ar    1  UNL1        0.1704
     25 F          62.9678   80.1149   10.6643 F       1  UNL1       -0.2017
     26 C          62.9943   82.6334   11.3018 C.ar    1  UNL1        0.0688
@<TRIPOS>BOND
     1     7     8    1
     2     1     8    1
     3     1     2    1
     4     2     3    1
     5     3     4    2
     6     3     5   am
     7     5    16    1
     8    16    17    1
     9    17    18    1
    10    18    19    1
    11    19    20   ar
    12    20    21   ar
    13    21    22   ar
    14    22    23    1
    15    22    24   ar
    16    24    25    1
    17    24    26   ar
    18     5     6    1
    19     8     9    1
    20     9    10    1
    21    10    11    1
    22    11    12    2
    23    11    13    2
    24    11    14    1
    25    14    15    1
    26    15     8    1
    27     6     1    1
    28    26    19   ar
@<TRIPOS>MOLECULE
*****
 26 28 0 0 0
SMALL
GASTEIGER

@<TRIPOS>ATOM
      1 C          63.9683   88.8912   14.7150 C.3     1  UNL1        0.0290
      2 C          63.3858   89.0104   16.0922 C.3     1  UNL1        0.0870
      3 C          63.3310   87.6370   16.6927 C.2     1  UNL1        0.2258
      4 O          62.8177   87.2921   18.0593 O.2     1  UNL1       -0.2749
      5 N          63.8796   86.6690   15.6867 N.am    1  UNL1       -0.2757
      6 C          64.2735   87.4441   14.4645 C.3     1  UNL1        0.0940
      7 C          65.0648   90.4665   14.9016 C.3     1  UNL1        0.0002
      8 C          64.2042   90.0208   13.7567 C.3     1  UNL1        0.0055
      9 C          63.2617   89.1828   12.9446 C.3     1  UNL1        0.0254
     10 C          62.8540   89.6292   11.5718 C.3     1  UNL1        0.1508
     11 S          63.3888   90.9136   11.0111 S.O2    1  UNL1       -0.0100
     12 O          63.6247   92.0432   10.0528 O.2     1  UNL1       -0.1730
     13 O          62.5282   90.4679    9.8662 O.2     1  UNL1       -0.1730
     14 C          64.3312   91.7515   11.8232 C.3     1  UNL1        0.1508
     15 C          64.7389   91.3052   13.1959 C.3     1  UNL1        0.0254
     16 C          64.0112   85.1862   15.8707 C.3     1  UNL1        0.1406
     17 C          64.2803   84.3045   14.6873 C.3     1  UNL1        0.2268
     18 O          63.1451   83.8437   13.8218 O.3     1  UNL1       -0.4735
     19 C          63.1544   84.1411   12.3516 C.ar    1  UNL1        0.1410
     20 C          63.8571   83.2152   11.4035 C.ar    1  UNL1        0.0394
     21 C          63.8663   83.5126    9.9333 C.ar    1  UNL1        0.0351
     22 C          63.1727   84.7358    9.4112 C.ar    1  UNL1        0.1676
     23 F          63.1819   85.0332    7.9410 F       1  UNL1       -0.2018
     24 C          62.4700   85.6617   10.3593 C.ar    1  UNL1        0.1704
     25 F          61.7764   86.8850    9.8371 F       1  UNL1       -0.2017
     26 C          62.4608   85.3644   11.8294 C.ar    1  UNL1        0.0688
@<TRIPOS>BOND
     1     7     8    1
     2     1     8    1
     3     1     2    1
     4     2     3    1
     5     3     4    2
     6     3     5   am
     7     5    16    1
     8    16    17    1
     9    17    18    1
    10    18    19    1
    11    19    20   ar
    12    20    21   ar
    13    21    22   ar
    14    22    23    1
    15    22    24   ar
    16    24    25    1
    17    24    26   ar
    18     5     6    1
    19     8     9    1
    20     9    10    1
    21    10    11    1
    22    11    12    2
    23    11    13    2
    24    11    14    1
    25    14    15    1
    26    15     8    1
    27     6     1    1
    28    26    19   ar
@<TRIPOS>MOLECULE
*****
 26 28 0 0 0
SMALL
GASTEIGER

@<TRIPOS>ATOM
      1 C          62.5342   90.3138   11.1969 C.3     1  UNL1        0.0290
      2 C          61.4717   90.0209   12.2145 C.3     1  UNL1        0.0870
      3 C          60.4603   89.1128   11.5802 C.2     1  UNL1        0.2258
      4 O          59.2279   88.5686   12.2396 O.2     1  UNL1       -0.2749
      5 N          60.8977   88.8445   10.1706 N.am    1  UNL1       -0.2757
      6 C          62.1794   89.5868    9.9338 C.3     1  UNL1        0.0940
      7 C          63.4053   91.5376    9.9876 C.3     1  UNL1        0.0002
      8 C          63.7399   91.1815   11.4058 C.3     1  UNL1        0.0055
      9 C          63.6558   90.5240   12.7515 C.3     1  UNL1        0.0254
     10 C          64.6611   90.8579   13.8135 C.3     1  UNL1        0.1508
     11 S          65.7505   91.8492   13.5299 S.O2    1  UNL1       -0.0100
     12 O          66.9561   92.7169   13.7388 O.2     1  UNL1       -0.1730
     13 O          66.0851   91.4931   14.9480 O.2     1  UNL1       -0.1730
     14 C          65.8346   92.5066   12.1843 C.3     1  UNL1        0.1508
     15 C          64.8293   92.1728   11.1223 C.3     1  UNL1        0.0254
     16 C          60.1794   87.9849    9.1731 C.3     1  UNL1        0.1406
     17 C          60.6000   86.5593    8.9710 C.3     1  UNL1        0.2268
     18 O          62.0571   86.2096    8.9033 O.3     1  UNL1       -0.4735
     19 C          62.6410   85.2357    9.8834 C.ar    1  UNL1        0.1410
     20 C          63.5710   84.1593    9.4076 C.ar    1  UNL1        0.0394
     21 C          64.1549   83.1855   10.3877 C.ar    1  UNL1        0.0351
     22 C          63.8088   83.2880   11.8436 C.ar    1  UNL1        0.1676
     23 F          64.3927   82.3141   12.8237 F       1  UNL1       -0.2018
     24 C          62.8788   84.3644   12.3194 C.ar    1  UNL1        0.1704
     25 F          62.5327   84.4670   13.7753 F       1  UNL1       -0.2017
     26 C          62.2949   85.3382   11.3393 C.ar    1  UNL1        0.0688
@<TRIPOS>BOND
     1     7     8    1
     2     1     8    1
     3     1     2    1
     4     2     3    1
     5     3     4    2
     6     3     5   am
     7     5    16    1
     8    16    17    1
     9    17    18    1
    10    18    19    1
    11    19    20   ar
    12    20    21   ar
    13    21    22   ar
    14    22    23    1
    15    22    24   ar
    16    24    25    1
    17    24    26   ar
    18     5     6    1
    19     8     9    1
    20     9    10    1
    21    10    11    1
    22    11    12    2
    23    11    13    2
    24    11    14    1
    25    14    15    1
    26    15     8    1
    27     6     1    1
    28    26    19   ar
@<TRIPOS>MOLECULE
*****
 26 28 0 0 0
SMALL
GASTEIGER

@<TRIPOS>ATOM
      1 C          62.4707   88.0987   11.4024 C.3     1  UNL1        0.0290
      2 C          63.1948   87.5986   12.6172 C.3     1  UNL1        0.0870
      3 C          63.8037   88.7798   13.3129 C.2     1  UNL1        0.2258
      4 O          64.6175   88.7381   14.5722 O.2     1  UNL1       -0.2749
      5 N          63.4560   90.0099   12.5281 N.am    1  UNL1       -0.2757
      6 C          62.6322   89.5890   11.3474 C.3     1  UNL1        0.0940
      7 C          62.4296   86.1831   11.1846 C.3     1  UNL1        0.0002
      8 C          61.7175   87.2564   10.4159 C.3     1  UNL1        0.0055
      9 C          61.2669   88.6223    9.9898 C.3     1  UNL1        0.0254
     10 C          60.3105   88.7732    8.8442 C.3     1  UNL1        0.1508
     11 S          59.8046   87.5581    8.1246 S.O2    1  UNL1       -0.0100
     12 O          59.0513   86.7158    7.1381 O.2     1  UNL1       -0.1730
     13 O          59.0924   88.6314    7.3559 O.2     1  UNL1       -0.1730
     14 C          60.2551   86.1923    8.5508 C.3     1  UNL1        0.1508
     15 C          61.2115   86.0415    9.6964 C.3     1  UNL1        0.0254
     16 C          63.8610   91.4143   12.8648 C.3     1  UNL1        0.1406
     17 C          65.2517   91.6979   13.3506 C.3     1  UNL1        0.2268
     18 O          65.8055   93.0894   13.2687 O.3     1  UNL1       -0.4735
     19 C          66.3330   93.6112   11.9650 C.ar    1  UNL1        0.1410
     20 C          66.1848   95.0643   11.6237 C.ar    1  UNL1        0.0394
     21 C          66.7122   95.5861   10.3200 C.ar    1  UNL1        0.0351
     22 C          67.3879   94.6547    9.3577 C.ar    1  UNL1        0.1676
     23 F          67.9153   95.1765    8.0540 F       1  UNL1       -0.2018
     24 C          67.5361   93.2016    9.6990 C.ar    1  UNL1        0.1704
     25 F          68.2118   92.2703    8.7367 F       1  UNL1       -0.2017
     26 C          67.0087   92.6799   11.0027 C.ar    1  UNL1        0.0688
@<TRIPOS>BOND
     1     7     8    1
     2     1     8    1
     3     1     2    1
     4     2     3    1
     5     3     4    2
     6     3     5   am
     7     5    16    1
     8    16    17    1
     9    17    18    1
    10    18    19    1
    11    19    20   ar
    12    20    21   ar
    13    21    22   ar
    14    22    23    1
    15    22    24   ar
    16    24    25    1
    17    24    26   ar
    18     5     6    1
    19     8     9    1
    20     9    10    1
    21    10    11    1
    22    11    12    2
    23    11    13    2
    24    11    14    1
    25    14    15    1
    26    15     8    1
    27     6     1    1
    28    26    19   ar
