@<TRIPOS>MOLECULE
*****
 34 38 0 0 0
SMALL
GASTEIGER

@<TRIPOS>ATOM
      1 C          64.2766   92.2373   11.1796 C.3     1  UNL1        0.0754
      2 C          64.8150   91.7288   12.4840 C.2     1  UNL1        0.1177
      3 C          64.2229   90.5022   13.1127 C.2     1  UNL1        0.1164
      4 C          64.7613   89.9938   14.4171 C.3     1  UNL1        0.2667
      5 N          65.8917   90.7117   15.0929 N.2     1  UNL1       -0.0600
      6 C          66.4837   91.9382   14.4642 C.2     1  UNL1        0.3201
      7 N          65.9454   92.4467   13.1599 N.pl3   1  UNL1       -0.2028
      8 H          66.3340   93.2517   12.7473 H       1  UNL1        0.2982
      9 C          64.1692   88.7673   15.0458 C.ar    1  UNL1        0.0308
     10 C          64.4299   87.4171   14.4468 C.ar    1  UNL1        0.0025
     11 C          63.8378   86.1906   15.0755 C.ar    1  UNL1        0.0295
     12 C          62.9851   86.3144   16.3033 C.ar    1  UNL1        0.1401
     13 F          62.3931   85.0879   16.9320 F       1  UNL1       -0.2042
     14 C          62.7244   87.6647   16.9024 C.ar    1  UNL1        0.0295
     15 C          63.3165   88.8911   16.2737 C.ar    1  UNL1        0.0025
     16 C          67.6142   92.6562   15.1401 C.ar    1  UNL1        0.0821
     17 C          68.6749   91.8763   15.8588 C.ar    1  UNL1        0.0074
     18 C          69.8053   92.5941   16.5347 C.ar    1  UNL1        0.0002
     19 C          69.8750   94.0919   16.4918 C.ar    1  UNL1        0.0000
     20 C          68.8143   94.8718   15.7730 C.ar    1  UNL1        0.0002
     21 C          67.6838   94.1538   15.0972 C.ar    1  UNL1        0.0074
     22 C          63.0925   89.7843   12.4369 C.2     1  UNL1        0.2527
     23 O          61.7575   89.6825   13.1134 O.2     1  UNL1       -0.2699
     24 N          63.2970   89.1681   11.0847 N.am    1  UNL1       -0.2836
     25 H          64.1732   89.2349   10.6408 H       1  UNL1        0.1549
     26 C          62.1665   88.4501   10.4090 C.2     1  UNL1        0.0322
     27 C          61.8422   87.0359   10.7893 C.2     1  UNL1        0.0122
     28 C          60.7117   86.3179   10.1136 C.2     1  UNL1        0.0216
     29 C          59.9056   87.0143    9.0575 C.2     1  UNL1        0.1008
     30 N          58.7420   86.5654    8.2241 N.2     1  UNL1       -0.1482
     31 N          58.3473   87.7022    7.3287 N.2     1  UNL1       -0.1467
     32 C          59.2669   88.8537    7.6087 C.2     1  UNL1        0.1198
     33 C          60.2300   88.4285    8.6772 C.2     1  UNL1        0.0238
     34 C          61.3605   89.1464    9.3529 C.3     1  UNL1        0.0707
@<TRIPOS>BOND
     1     1     2    1
     2     2     3    2
     3     3    22    1
     4    22    23    2
     5    22    24   am
     6    24    26    1
     7    26    27    2
     8    27    28    1
     9    28    29    2
    10    29    30    1
    11    30    31    2
    12    31    32    1
    13    32    33    2
    14    33    34    1
    15     3     4    1
    16     4     9    1
    17     9    10   ar
    18    10    11   ar
    19    11    12   ar
    20    12    13    1
    21    12    14   ar
    22    14    15   ar
    23     4     5    1
    24     5     6    2
    25     6    16    1
    26    16    17   ar
    27    17    18   ar
    28    18    19   ar
    29    19    20   ar
    30    20    21   ar
    31     6     7    1
    32     7     2    1
    33    34    26    1
    34    15     9   ar
    35    21    16   ar
    36    33    29    1
    37    24    25    1
    38     7     8    1
@<TRIPOS>MOLECULE
*****
 34 38 0 0 0
SMALL
GASTEIGER

@<TRIPOS>ATOM
      1 C          59.7580   85.5901    7.7904 C.3     1  UNL1        0.0754
      2 C          59.9957   87.0651    7.9232 C.2     1  UNL1        0.1177
      3 C          60.7485   87.6001    9.1053 C.2     1  UNL1        0.1164
      4 C          60.9862   89.0752    9.2380 C.3     1  UNL1        0.2667
      5 N          60.4712   90.0153    8.1888 N.2     1  UNL1       -0.0600
      6 C          59.7185   89.4803    7.0067 C.2     1  UNL1        0.3201
      7 N          59.4808   88.0053    6.8740 N.pl3   1  UNL1       -0.2028
      8 H          58.9868   87.6542    6.0981 H       1  UNL1        0.2982
      9 C          61.7389   89.6102   10.4201 C.ar    1  UNL1        0.0308
     10 C          61.2006   89.4091   11.8056 C.ar    1  UNL1        0.0025
     11 C          61.9534   89.9441   12.9877 C.ar    1  UNL1        0.0295
     12 C          63.2444   90.6803   12.7841 C.ar    1  UNL1        0.1401
     13 F          63.9971   91.2153   13.9661 F       1  UNL1       -0.2042
     14 C          63.7826   90.8813   11.3985 C.ar    1  UNL1        0.0295
     15 C          63.0299   90.3463   10.2164 C.ar    1  UNL1        0.0025
     16 C          59.2035   90.4204    5.9574 C.ar    1  UNL1        0.0821
     17 C          57.7262   90.6120    5.7821 C.ar    1  UNL1        0.0074
     18 C          57.2111   91.5521    4.7328 C.ar    1  UNL1        0.0002
     19 C          58.1734   92.3007    3.8590 C.ar    1  UNL1        0.0000
     20 C          59.6508   92.1092    4.0344 C.ar    1  UNL1        0.0002
     21 C          60.1658   91.1690    5.0837 C.ar    1  UNL1        0.0074
     22 C          61.2635   86.6600   10.1546 C.2     1  UNL1        0.2527
     23 O          60.6322   86.6361   11.5151 O.2     1  UNL1       -0.2699
     24 N          62.4097   85.7438    9.8433 N.am    1  UNL1       -0.2836
     25 H          62.8240   85.7595    8.9504 H       1  UNL1        0.1549
     26 C          62.9246   84.8037   10.8927 C.2     1  UNL1        0.0322
     27 C          63.6144   83.5344   10.4892 C.2     1  UNL1        0.0122
     28 C          64.1293   82.5943   11.5386 C.2     1  UNL1        0.0216
     29 C          63.9545   82.9237   12.9914 C.2     1  UNL1        0.1008
     30 N          64.3544   82.1961   14.2407 N.2     1  UNL1       -0.1482
     31 N          63.9118   83.0158   15.4163 N.2     1  UNL1       -0.1467
     32 C          63.2383   84.2500   14.8937 C.2     1  UNL1        0.1198
     33 C          63.2647   84.1931   13.3950 C.2     1  UNL1        0.0238
     34 C          62.7498   85.1331   12.3456 C.3     1  UNL1        0.0707
@<TRIPOS>BOND
     1     1     2    1
     2     2     3    2
     3     3    22    1
     4    22    23    2
     5    22    24   am
     6    24    26    1
     7    26    27    2
     8    27    28    1
     9    28    29    2
    10    29    30    1
    11    30    31    2
    12    31    32    1
    13    32    33    2
    14    33    34    1
    15     3     4    1
    16     4     9    1
    17     9    10   ar
    18    10    11   ar
    19    11    12   ar
    20    12    13    1
    21    12    14   ar
    22    14    15   ar
    23     4     5    1
    24     5     6    2
    25     6    16    1
    26    16    17   ar
    27    17    18   ar
    28    18    19   ar
    29    19    20   ar
    30    20    21   ar
    31     6     7    1
    32     7     2    1
    33    34    26    1
    34    15     9   ar
    35    21    16   ar
    36    33    29    1
    37    24    25    1
    38     7     8    1
@<TRIPOS>MOLECULE
*****
 34 38 0 0 0
SMALL
GASTEIGER

@<TRIPOS>ATOM
      1 C          66.4771   92.2587   14.4561 C.3     1  UNL1        0.0754
      2 C          65.8201   92.4086   13.1161 C.2     1  UNL1        0.1177
      3 C          64.6781   91.5132   12.7362 C.2     1  UNL1        0.1164
      4 C          64.0211   91.6632   11.3961 C.3     1  UNL1        0.2667
      5 N          64.5061   92.7085   10.4359 N.2     1  UNL1       -0.0600
      6 C          65.6480   93.6039   10.8157 C.2     1  UNL1        0.3201
      7 N          66.3050   93.4539   12.1558 N.pl3   1  UNL1       -0.2028
      8 H          67.0545   94.0416   12.4050 H       1  UNL1        0.2982
      9 C          62.8792   90.7678   11.0163 C.ar    1  UNL1        0.0308
     10 C          61.4871   91.0950   11.4686 C.ar    1  UNL1        0.0025
     11 C          60.3451   90.1996   11.0887 C.ar    1  UNL1        0.0295
     12 C          60.5954   88.9770   10.2565 C.ar    1  UNL1        0.1401
     13 F          59.4534   88.0817    9.8766 F       1  UNL1       -0.2042
     14 C          61.9876   88.6499    9.8041 C.ar    1  UNL1        0.0295
     15 C          63.1296   89.5452   10.1840 C.ar    1  UNL1        0.0025
     16 C          66.1329   94.6492    9.8554 C.ar    1  UNL1        0.0821
     17 C          65.2505   95.8094    9.5012 C.ar    1  UNL1        0.0074
     18 C          65.7353   96.8547    8.5410 C.ar    1  UNL1        0.0002
     19 C          67.1026   96.7399    7.9348 C.ar    1  UNL1        0.0000
     20 C          67.9850   95.5798    8.2890 C.ar    1  UNL1        0.0002
     21 C          67.5001   94.5345    9.2493 C.ar    1  UNL1        0.0074
     22 C          64.1932   90.4679   13.6965 C.2     1  UNL1        0.2527
     23 O          63.2728   90.8490   14.8180 O.2     1  UNL1       -0.2699
     24 N          64.6286   89.0416   13.5352 N.am    1  UNL1       -0.2836
     25 H          65.2326   88.7915   12.7991 H       1  UNL1        0.1549
     26 C          64.1436   87.9962   14.4955 C.2     1  UNL1        0.0322
     27 C          64.1347   86.5520   14.0906 C.2     1  UNL1        0.0122
     28 C          63.6497   85.5067   15.0509 C.2     1  UNL1        0.0216
     29 C          63.1736   85.9058   16.4162 C.2     1  UNL1        0.1008
     30 N          62.6431   85.1046   17.5680 N.2     1  UNL1       -0.1482
     31 N          62.3241   86.0537   18.6848 N.2     1  UNL1       -0.1467
     32 C          62.6574   87.4415   18.2233 C.2     1  UNL1        0.1198
     33 C          63.1824   87.3500   16.8211 C.2     1  UNL1        0.0238
     34 C          63.6674   88.3953   15.8608 C.3     1  UNL1        0.0707
@<TRIPOS>BOND
     1     1     2    1
     2     2     3    2
     3     3    22    1
     4    22    23    2
     5    22    24   am
     6    24    26    1
     7    26    27    2
     8    27    28    1
     9    28    29    2
    10    29    30    1
    11    30    31    2
    12    31    32    1
    13    32    33    2
    14    33    34    1
    15     3     4    1
    16     4     9    1
    17     9    10   ar
    18    10    11   ar
    19    11    12   ar
    20    12    13    1
    21    12    14   ar
    22    14    15   ar
    23     4     5    1
    24     5     6    2
    25     6    16    1
    26    16    17   ar
    27    17    18   ar
    28    18    19   ar
    29    19    20   ar
    30    20    21   ar
    31     6     7    1
    32     7     2    1
    33    34    26    1
    34    15     9   ar
    35    21    16   ar
    36    33    29    1
    37    24    25    1
    38     7     8    1
@<TRIPOS>MOLECULE
*****
 34 38 0 0 0
SMALL
GASTEIGER

@<TRIPOS>ATOM
      1 C          64.5415   88.1248   14.7873 C.3     1  UNL1        0.0754
      2 C          64.2100   88.8798   13.5344 C.2     1  UNL1        0.1177
      3 C          63.3271   88.2561   12.4943 C.2     1  UNL1        0.1164
      4 C          62.9955   89.0112   11.2413 C.3     1  UNL1        0.2667
      5 N          63.5468   90.3899   11.0284 N.2     1  UNL1       -0.0600
      6 C          64.4296   91.0135   12.0684 C.2     1  UNL1        0.3201
      7 N          64.7612   90.2585   13.3213 N.pl3   1  UNL1       -0.2028
      8 H          65.3406   90.6678   14.0039 H       1  UNL1        0.2982
      9 C          62.1127   88.3876   10.2013 C.ar    1  UNL1        0.0308
     10 C          62.5184   87.1003    9.5471 C.ar    1  UNL1        0.0025
     11 C          61.6355   86.4766    8.5070 C.ar    1  UNL1        0.0295
     12 C          60.3469   87.1405    8.1211 C.ar    1  UNL1        0.1401
     13 F          59.4641   86.5169    7.0811 F       1  UNL1       -0.2042
     14 C          59.9413   88.4279    8.7753 C.ar    1  UNL1        0.0295
     15 C          60.8241   89.0515    9.8154 C.ar    1  UNL1        0.0025
     16 C          64.9809   92.3922   11.8554 C.ar    1  UNL1        0.0821
     17 C          65.7031   93.0914   12.9688 C.ar    1  UNL1        0.0074
     18 C          66.2543   94.4700   12.7559 C.ar    1  UNL1        0.0002
     19 C          66.0834   95.1496   11.4296 C.ar    1  UNL1        0.0000
     20 C          65.3612   94.4504   10.3162 C.ar    1  UNL1        0.0002
     21 C          64.8100   93.0717   10.5292 C.ar    1  UNL1        0.0074
     22 C          62.7758   86.8775   12.7072 C.2     1  UNL1        0.2527
     23 O          61.3555   86.5718   12.3340 O.2     1  UNL1       -0.2699
     24 N          63.6448   85.8045   13.2934 N.am    1  UNL1       -0.2836
     25 H          64.5770   86.0052   13.5383 H       1  UNL1        0.1549
     26 C          63.0935   84.4258   13.5063 C.2     1  UNL1        0.0322
     27 C          62.2599   84.1302   14.7177 C.2     1  UNL1        0.0122
     28 C          61.7085   82.7515   14.9306 C.2     1  UNL1        0.0216
     29 C          61.9909   81.6685   13.9320 C.2     1  UNL1        0.1008
     30 N          61.5856   80.2254   13.8749 N.2     1  UNL1       -0.1482
     31 N          62.1688   79.6291   12.6282 N.2     1  UNL1       -0.1467
     32 C          62.9345   80.7037   11.9147 C.2     1  UNL1        0.1198
     33 C          62.8246   81.9641   12.7205 C.2     1  UNL1        0.0238
     34 C          63.3759   83.3428   12.5077 C.3     1  UNL1        0.0707
@<TRIPOS>BOND
     1     1     2    1
     2     2     3    2
     3     3    22    1
     4    22    23    2
     5    22    24   am
     6    24    26    1
     7    26    27    2
     8    27    28    1
     9    28    29    2
    10    29    30    1
    11    30    31    2
    12    31    32    1
    13    32    33    2
    14    33    34    1
    15     3     4    1
    16     4     9    1
    17     9    10   ar
    18    10    11   ar
    19    11    12   ar
    20    12    13    1
    21    12    14   ar
    22    14    15   ar
    23     4     5    1
    24     5     6    2
    25     6    16    1
    26    16    17   ar
    27    17    18   ar
    28    18    19   ar
    29    19    20   ar
    30    20    21   ar
    31     6     7    1
    32     7     2    1
    33    34    26    1
    34    15     9   ar
    35    21    16   ar
    36    33    29    1
    37    24    25    1
    38     7     8    1
@<TRIPOS>MOLECULE
*****
 34 38 0 0 0
SMALL
GASTEIGER

@<TRIPOS>ATOM
      1 C          64.8898   85.8392   15.4367 C.3     1  UNL1        0.0754
      2 C          64.4685   86.8971   14.4605 C.2     1  UNL1        0.1177
      3 C          63.5794   86.5411   13.3059 C.2     1  UNL1        0.1164
      4 C          63.1581   87.5991   12.3296 C.3     1  UNL1        0.2667
      5 N          63.6257   89.0131   12.5079 N.2     1  UNL1       -0.0600
      6 C          64.5147   89.3691   13.6624 C.2     1  UNL1        0.3201
      7 N          64.9361   88.3112   14.6386 N.pl3   1  UNL1       -0.2028
      8 H          65.5195   88.5449   15.3964 H       1  UNL1        0.2982
      9 C          62.2691   87.2431   11.1751 C.ar    1  UNL1        0.0308
     10 C          62.7330   86.2523   10.1491 C.ar    1  UNL1        0.0025
     11 C          61.8439   85.8962    8.9945 C.ar    1  UNL1        0.0295
     12 C          60.4910   86.5311    8.8661 C.ar    1  UNL1        0.1401
     13 F          59.6020   86.1751    7.7116 F       1  UNL1       -0.2042
     14 C          60.0271   87.5220    9.8923 C.ar    1  UNL1        0.0295
     15 C          60.9161   87.8780   11.0468 C.ar    1  UNL1        0.0025
     16 C          64.9824   90.7833   13.8406 C.ar    1  UNL1        0.0821
     17 C          65.2565   91.3147   15.2162 C.ar    1  UNL1        0.0074
     18 C          65.7242   92.7288   15.3945 C.ar    1  UNL1        0.0002
     19 C          65.9177   93.6113   14.1971 C.ar    1  UNL1        0.0000
     20 C          65.6435   93.0799   12.8215 C.ar    1  UNL1        0.0002
     21 C          65.1758   91.6658   12.6433 C.ar    1  UNL1        0.0074
     22 C          63.1117   85.1270   13.1276 C.2     1  UNL1        0.2527
     23 O          61.6900   84.7627   13.4374 O.2     1  UNL1       -0.2699
     24 N          64.0658   84.0775   12.6397 N.am    1  UNL1       -0.2836
     25 H          64.9989   84.3166   12.4364 H       1  UNL1        0.1549
     26 C          63.5980   82.6634   12.4614 C.2     1  UNL1        0.0322
     27 C          63.1505   81.8659   13.6503 C.2     1  UNL1        0.0122
     28 C          62.6828   80.4519   13.4721 C.2     1  UNL1        0.0216
     29 C          62.6626   79.8354   12.1048 C.2     1  UNL1        0.1008
     30 N          62.2564   78.4740   11.6236 N.2     1  UNL1       -0.1482
     31 N          62.4529   78.4301   10.1372 N.2     1  UNL1       -0.1467
     32 C          62.9806   79.7643    9.6997 C.2     1  UNL1        0.1198
     33 C          63.1102   80.6329   10.9158 C.2     1  UNL1        0.0238
     34 C          63.5779   82.0469   11.0941 C.3     1  UNL1        0.0707
@<TRIPOS>BOND
     1     1     2    1
     2     2     3    2
     3     3    22    1
     4    22    23    2
     5    22    24   am
     6    24    26    1
     7    26    27    2
     8    27    28    1
     9    28    29    2
    10    29    30    1
    11    30    31    2
    12    31    32    1
    13    32    33    2
    14    33    34    1
    15     3     4    1
    16     4     9    1
    17     9    10   ar
    18    10    11   ar
    19    11    12   ar
    20    12    13    1
    21    12    14   ar
    22    14    15   ar
    23     4     5    1
    24     5     6    2
    25     6    16    1
    26    16    17   ar
    27    17    18   ar
    28    18    19   ar
    29    19    20   ar
    30    20    21   ar
    31     6     7    1
    32     7     2    1
    33    34    26    1
    34    15     9   ar
    35    21    16   ar
    36    33    29    1
    37    24    25    1
    38     7     8    1
@<TRIPOS>MOLECULE
*****
 34 38 0 0 0
SMALL
GASTEIGER

@<TRIPOS>ATOM
      1 C          58.2558   93.4187   -1.2856 C.3     1  UNL1        0.0754
      2 C          59.2091   93.4043   -0.1277 C.2     1  UNL1        0.1177
      3 C          60.5348   94.0975   -0.2389 C.2     1  UNL1        0.1164
      4 C          61.4881   94.0831    0.9191 C.3     1  UNL1        0.2667
      5 N          61.1159   93.3755    2.1882 N.2     1  UNL1       -0.0600
      6 C          59.7904   92.6823    2.2994 C.2     1  UNL1        0.3201
      7 N          58.8371   92.6967    1.1415 N.pl3   1  UNL1       -0.2028
      8 H          57.9671   92.2417    1.2145 H       1  UNL1        0.2982
      9 C          62.8137   94.7763    0.8079 C.ar    1  UNL1        0.0308
     10 C          62.9914   96.1512    1.3805 C.ar    1  UNL1        0.0025
     11 C          64.3170   96.8444    1.2693 C.ar    1  UNL1        0.0295
     12 C          65.4649   96.1626    0.5855 C.ar    1  UNL1        0.1401
     13 F          66.7904   96.8558    0.4744 F       1  UNL1       -0.2042
     14 C          65.2871   94.7876    0.0129 C.ar    1  UNL1        0.0295
     15 C          63.9615   94.0944    0.1241 C.ar    1  UNL1        0.0025
     16 C          59.4182   91.9747    3.5686 C.ar    1  UNL1        0.0821
     17 C          60.4721   91.2724    4.3724 C.ar    1  UNL1        0.0074
     18 C          60.1001   90.5648    5.6416 C.ar    1  UNL1        0.0002
     19 C          58.6741   90.5594    6.1070 C.ar    1  UNL1        0.0000
     20 C          57.6202   91.2617    5.3032 C.ar    1  UNL1        0.0002
     21 C          57.9923   91.9693    4.0340 C.ar    1  UNL1        0.0074
     22 C          60.9069   94.8051   -1.5080 C.2     1  UNL1        0.2527
     23 O          60.5294   96.2437   -1.7030 O.2     1  UNL1       -0.2699
     24 N          61.6566   94.0742   -2.5821 N.am    1  UNL1       -0.2836
     25 H          61.9044   93.1300   -2.4541 H       1  UNL1        0.1549
     26 C          62.0288   94.7819   -3.8513 C.2     1  UNL1        0.0322
     27 C          60.9567   95.2752   -4.7770 C.2     1  UNL1        0.0122
     28 C          61.3289   95.9829   -6.0462 C.2     1  UNL1        0.0216
     29 C          62.7733   96.1972   -6.3895 C.2     1  UNL1        0.1008
     30 N          63.4394   96.8559   -7.5610 N.2     1  UNL1       -0.1482
     31 N          64.9232   96.7696   -7.3592 N.2     1  UNL1       -0.1467
     32 C          65.1742   96.0575   -6.0630 C.2     1  UNL1        0.1198
     33 C          63.8454   95.7038   -5.4637 C.2     1  UNL1        0.0238
     34 C          63.4732   94.9961   -4.1946 C.3     1  UNL1        0.0707
@<TRIPOS>BOND
     1     1     2    1
     2     2     3    2
     3     3    22    1
     4    22    23    2
     5    22    24   am
     6    24    26    1
     7    26    27    2
     8    27    28    1
     9    28    29    2
    10    29    30    1
    11    30    31    2
    12    31    32    1
    13    32    33    2
    14    33    34    1
    15     3     4    1
    16     4     9    1
    17     9    10   ar
    18    10    11   ar
    19    11    12   ar
    20    12    13    1
    21    12    14   ar
    22    14    15   ar
    23     4     5    1
    24     5     6    2
    25     6    16    1
    26    16    17   ar
    27    17    18   ar
    28    18    19   ar
    29    19    20   ar
    30    20    21   ar
    31     6     7    1
    32     7     2    1
    33    34    26    1
    34    15     9   ar
    35    21    16   ar
    36    33    29    1
    37    24    25    1
    38     7     8    1
@<TRIPOS>MOLECULE
*****
 34 38 0 0 0
SMALL
GASTEIGER

@<TRIPOS>ATOM
      1 C          64.8700   86.6616   15.4262 C.3     1  UNL1        0.0754
      2 C          64.5114   87.6584   14.3645 C.2     1  UNL1        0.1177
      3 C          63.6136   87.2574   13.2316 C.2     1  UNL1        0.1164
      4 C          63.2549   88.2543   12.1698 C.3     1  UNL1        0.2667
      5 N          63.7940   89.6523   12.2407 N.2     1  UNL1       -0.0600
      6 C          64.6917   90.0533   13.3735 C.2     1  UNL1        0.3201
      7 N          65.0504   89.0565   14.4353 N.pl3   1  UNL1       -0.2028
      8 H          65.6396   89.3197   15.1788 H       1  UNL1        0.2982
      9 C          62.3572   87.8533   11.0370 C.ar    1  UNL1        0.0308
     10 C          61.0951   88.6195   10.7728 C.ar    1  UNL1        0.0025
     11 C          60.1974   88.2184    9.6399 C.ar    1  UNL1        0.0295
     12 C          60.5618   87.0511    8.7713 C.ar    1  UNL1        0.1401
     13 F          59.6640   86.6500    7.6385 F       1  UNL1       -0.2042
     14 C          61.8239   86.2848    9.0356 C.ar    1  UNL1        0.0295
     15 C          62.7217   86.6858   10.1684 C.ar    1  UNL1        0.0025
     16 C          65.2307   91.4514   13.4444 C.ar    1  UNL1        0.0821
     17 C          65.1471   92.3490   12.2456 C.ar    1  UNL1        0.0074
     18 C          65.6862   93.7471   12.3164 C.ar    1  UNL1        0.0002
     19 C          66.3088   94.2474   13.5861 C.ar    1  UNL1        0.0000
     20 C          66.3923   93.3497   14.7849 C.ar    1  UNL1        0.0002
     21 C          65.8533   91.9517   14.7140 C.ar    1  UNL1        0.0074
     22 C          63.0745   85.8594   13.1606 C.2     1  UNL1        0.2527
     23 O          61.5995   85.6311   13.0109 O.2     1  UNL1       -0.2699
     24 N          64.0104   84.6898   13.2394 N.am    1  UNL1       -0.2836
     25 H          64.9784   84.8397   13.3377 H       1  UNL1        0.1549
     26 C          63.4712   83.2918   13.1685 C.2     1  UNL1        0.0322
     27 C          64.2067   82.2430   12.3881 C.2     1  UNL1        0.0122
     28 C          63.6675   80.8450   12.3171 C.2     1  UNL1        0.0216
     29 C          62.3929   80.4959   13.0266 C.2     1  UNL1        0.1008
     30 N          61.6243   79.2125   13.1361 N.2     1  UNL1       -0.1482
     31 N          60.4137   79.4681   13.9842 N.2     1  UNL1       -0.1467
     32 C          60.4342   80.9095   14.3989 C.2     1  UNL1        0.1198
     33 C          61.6575   81.5447   13.8071 C.2     1  UNL1        0.0238
     34 C          62.1966   82.9427   13.8780 C.3     1  UNL1        0.0707
@<TRIPOS>BOND
     1     1     2    1
     2     2     3    2
     3     3    22    1
     4    22    23    2
     5    22    24   am
     6    24    26    1
     7    26    27    2
     8    27    28    1
     9    28    29    2
    10    29    30    1
    11    30    31    2
    12    31    32    1
    13    32    33    2
    14    33    34    1
    15     3     4    1
    16     4     9    1
    17     9    10   ar
    18    10    11   ar
    19    11    12   ar
    20    12    13    1
    21    12    14   ar
    22    14    15   ar
    23     4     5    1
    24     5     6    2
    25     6    16    1
    26    16    17   ar
    27    17    18   ar
    28    18    19   ar
    29    19    20   ar
    30    20    21   ar
    31     6     7    1
    32     7     2    1
    33    34    26    1
    34    15     9   ar
    35    21    16   ar
    36    33    29    1
    37    24    25    1
    38     7     8    1
