@<TRIPOS>MOLECULE
*****
 21 23 0 0 0
SMALL
GASTEIGER

@<TRIPOS>ATOM
      1 C          65.1164   91.4079   13.5965 C.2     1  UNL1        0.0919
      2 C          64.9379   90.1890   14.4522 C.2     1  UNL1        0.0183
      3 C          64.0700   89.0609   13.9789 C.2     1  UNL1        0.0511
      4 C          63.3806   89.1516   12.6498 C.2     1  UNL1        0.2322
      5 N          62.4704   88.2054   11.9245 N.2     1  UNL1       -0.0308
      6 C          62.0864   88.8394   10.6205 C.2     1  UNL1        0.3752
      7 N          62.7593   90.1776   10.5398 N.2     1  UNL1       -0.0347
      8 C          63.5592   90.3705   11.7940 C.2     1  UNL1        0.2191
      9 C          64.4271   91.4987   12.2674 C.3     1  UNL1        0.1226
     10 C          61.1873   88.2405    9.5798 C.ar    1  UNL1        0.0884
     11 C          61.2053   86.7607    9.3349 C.ar    1  UNL1        0.0077
     12 C          60.3063   86.1617    8.2943 C.ar    1  UNL1        0.0003
     13 C          59.3892   87.0425    7.4986 C.ar    1  UNL1        0.0000
     14 C          59.3712   88.5222    7.7435 C.ar    1  UNL1        0.0003
     15 C          60.2702   89.1212    8.7841 C.ar    1  UNL1        0.0077
     16 S          65.9843   92.5361   14.0698 S.O2    1  UNL1        0.0054
     17 O          65.2260   92.5766   15.3634 O.2     1  UNL1       -0.1689
     18 O          66.7425   92.4955   12.7762 O.2     1  UNL1       -0.1689
     19 C          66.8522   93.6642   14.5431 C.3     1  UNL1        0.1556
     20 C          68.5361   92.2191   15.8944 C.3     1  UNL1        0.0019
     21 C          67.7364   93.4788   15.7405 C.3     1  UNL1        0.0257
@<TRIPOS>BOND
     1    20    21    1
     2    21    19    1
     3    19    16    1
     4    16    17    2
     5    16    18    2
     6    16     1    1
     7     1     2    2
     8     2     3    1
     9     3     4    2
    10     4     5    1
    11     5     6    2
    12     6    10    1
    13    10    11   ar
    14    11    12   ar
    15    12    13   ar
    16    13    14   ar
    17    14    15   ar
    18     6     7    1
    19     7     8    2
    20     8     9    1
    21     9     1    1
    22     8     4    1
    23    15    10   ar
@<TRIPOS>MOLECULE
*****
 21 23 0 0 0
SMALL
GASTEIGER

@<TRIPOS>ATOM
      1 C          64.4912   90.1901   14.1447 C.2     1  UNL1        0.0919
      2 C          63.7650   90.4082   12.8505 C.2     1  UNL1        0.0183
      3 C          63.1617   89.2431   12.1234 C.2     1  UNL1        0.0511
      4 C          63.2845   87.8600   12.6906 C.2     1  UNL1        0.2322
      5 N          62.7962   86.5282   12.2030 N.2     1  UNL1       -0.0308
      6 C          63.2206   85.4869   13.1958 C.2     1  UNL1        0.3752
      7 N          63.9712   86.1752   14.2971 N.2     1  UNL1       -0.0347
      8 C          64.0106   87.6419   13.9849 C.2     1  UNL1        0.2191
      9 C          64.6140   88.8070   14.7119 C.3     1  UNL1        0.1226
     10 C          62.9431   84.0156   13.1035 C.ar    1  UNL1        0.0884
     11 C          63.1875   83.2857   11.8161 C.ar    1  UNL1        0.0077
     12 C          62.9101   81.8145   11.7238 C.ar    1  UNL1        0.0003
     13 C          62.3882   81.0733   12.9188 C.ar    1  UNL1        0.0000
     14 C          62.1438   81.8032   14.2062 C.ar    1  UNL1        0.0003
     15 C          62.4213   83.2744   14.2986 C.ar    1  UNL1        0.0077
     16 S          65.0945   91.3552   14.8717 S.O2    1  UNL1        0.0054
     17 O          66.3333   91.2362   14.0343 O.2     1  UNL1       -0.1689
     18 O          63.8558   91.4741   15.7092 O.2     1  UNL1       -0.1689
     19 C          65.6979   92.5202   15.5988 C.3     1  UNL1        0.1556
     20 C          68.0866   93.5291   15.7607 C.3     1  UNL1        0.0019
     21 C          67.1098   92.4423   16.0993 C.3     1  UNL1        0.0257
@<TRIPOS>BOND
     1    20    21    1
     2    21    19    1
     3    19    16    1
     4    16    17    2
     5    16    18    2
     6    16     1    1
     7     1     2    2
     8     2     3    1
     9     3     4    2
    10     4     5    1
    11     5     6    2
    12     6    10    1
    13    10    11   ar
    14    11    12   ar
    15    12    13   ar
    16    13    14   ar
    17    14    15   ar
    18     6     7    1
    19     7     8    2
    20     8     9    1
    21     9     1    1
    22     8     4    1
    23    15    10   ar
@<TRIPOS>MOLECULE
*****
 21 23 0 0 0
SMALL
GASTEIGER

@<TRIPOS>ATOM
      1 C          61.7523   89.2957   10.5601 C.2     1  UNL1        0.0919
      2 C          62.0470   90.4608    9.6625 C.2     1  UNL1        0.0183
      3 C          63.1035   91.4543   10.0456 C.2     1  UNL1        0.0511
      4 C          63.8653   91.2827   11.3263 C.2     1  UNL1        0.2322
      5 N          64.9547   92.0941   11.9625 N.2     1  UNL1       -0.0308
      6 C          65.3334   91.4305   13.2533 C.2     1  UNL1        0.3752
      7 N          64.4780   90.2089   13.4149 N.2     1  UNL1       -0.0347
      8 C          63.5706   90.1177   12.2239 C.2     1  UNL1        0.2191
      9 C          62.5141   89.1241   11.8408 C.3     1  UNL1        0.1226
     10 C          66.3832   91.9051   14.2140 C.ar    1  UNL1        0.0884
     11 C          65.9917   92.3570   15.5896 C.ar    1  UNL1        0.0077
     12 C          67.0415   92.8316   16.5502 C.ar    1  UNL1        0.0003
     13 C          68.4827   92.8542   16.1351 C.ar    1  UNL1        0.0000
     14 C          68.8742   92.4023   14.7595 C.ar    1  UNL1        0.0003
     15 C          67.8244   91.9277   13.7989 C.ar    1  UNL1        0.0077
     16 S          60.6959   88.3022   10.1770 S.O2    1  UNL1        0.0054
     17 O          61.1222   87.4130   11.3073 O.2     1  UNL1       -0.1689
     18 O          60.2695   89.1914    9.0467 O.2     1  UNL1       -0.1689
     19 C          59.6394   87.3086    9.7939 C.3     1  UNL1        0.1556
     20 C          60.3297   85.9740    7.6744 C.3     1  UNL1        0.0019
     21 C          59.4249   86.9609    8.3507 C.3     1  UNL1        0.0257
@<TRIPOS>BOND
     1    20    21    1
     2    21    19    1
     3    19    16    1
     4    16    17    2
     5    16    18    2
     6    16     1    1
     7     1     2    2
     8     2     3    1
     9     3     4    2
    10     4     5    1
    11     5     6    2
    12     6    10    1
    13    10    11   ar
    14    11    12   ar
    15    12    13   ar
    16    13    14   ar
    17    14    15   ar
    18     6     7    1
    19     7     8    2
    20     8     9    1
    21     9     1    1
    22     8     4    1
    23    15    10   ar
@<TRIPOS>MOLECULE
*****
 21 23 0 0 0
SMALL
GASTEIGER

@<TRIPOS>ATOM
      1 C          65.9038   93.8249   12.0172 C.2     1  UNL1        0.0919
      2 C          66.5607   94.2211   13.3062 C.2     1  UNL1        0.0183
      3 C          66.4581   93.3268   14.5061 C.2     1  UNL1        0.0511
      4 C          65.6986   92.0364   14.4170 C.2     1  UNL1        0.2322
      5 N          65.4282   90.9592   15.4252 N.2     1  UNL1       -0.0308
      6 C          64.6042   89.8973   14.7594 C.2     1  UNL1        0.3752
      7 N          64.3653   90.3182   13.3396 N.2     1  UNL1       -0.0347
      8 C          65.0417   91.6403   13.1280 C.2     1  UNL1        0.2191
      9 C          65.1443   92.5345   11.9281 C.3     1  UNL1        0.1226
     10 C          64.1064   88.6360   15.4008 C.ar    1  UNL1        0.0884
     11 C          63.2490   88.7072   16.6295 C.ar    1  UNL1        0.0077
     12 C          62.7512   87.4459   17.2708 C.ar    1  UNL1        0.0003
     13 C          63.1110   86.1134   16.6835 C.ar    1  UNL1        0.0000
     14 C          63.9684   86.0422   15.4548 C.ar    1  UNL1        0.0003
     15 C          64.4662   87.3035   14.8135 C.ar    1  UNL1        0.0077
     16 S          66.0064   94.7192   10.8173 S.O2    1  UNL1        0.0054
     17 O          66.0128   93.5162    9.9213 O.2     1  UNL1       -0.1689
     18 O          66.0000   95.9222   11.7133 O.2     1  UNL1       -0.1689
     19 C          66.1089   95.6135    9.6174 C.3     1  UNL1        0.1556
     20 C          67.5720   96.8560    7.8665 C.3     1  UNL1        0.0019
     21 C          67.4396   95.8419    8.9638 C.3     1  UNL1        0.0257
@<TRIPOS>BOND
     1    20    21    1
     2    21    19    1
     3    19    16    1
     4    16    17    2
     5    16    18    2
     6    16     1    1
     7     1     2    2
     8     2     3    1
     9     3     4    2
    10     4     5    1
    11     5     6    2
    12     6    10    1
    13    10    11   ar
    14    11    12   ar
    15    12    13   ar
    16    13    14   ar
    17    14    15   ar
    18     6     7    1
    19     7     8    2
    20     8     9    1
    21     9     1    1
    22     8     4    1
    23    15    10   ar
@<TRIPOS>MOLECULE
*****
 21 23 0 0 0
SMALL
GASTEIGER

@<TRIPOS>ATOM
      1 C          64.0318   89.5288   15.6323 C.2     1  UNL1        0.0919
      2 C          63.3382   89.1194   16.8977 C.2     1  UNL1        0.0183
      3 C          62.8661   87.7063   17.0709 C.2     1  UNL1        0.0511
      4 C          63.0876   86.7024   15.9786 C.2     1  UNL1        0.2322
      5 N          62.7356   85.2487   15.8649 N.2     1  UNL1       -0.0308
      6 C          63.2117   84.7596   14.5292 C.2     1  UNL1        0.3752
      7 N          63.8579   85.9109   13.8173 N.2     1  UNL1       -0.0347
      8 C          63.7812   87.1117   14.7132 C.2     1  UNL1        0.2191
      9 C          64.2533   88.5249   14.5400 C.3     1  UNL1        0.1226
     10 C          63.0669   83.3640   13.9985 C.ar    1  UNL1        0.0884
     11 C          62.0644   82.4298   14.6087 C.ar    1  UNL1        0.0077
     12 C          61.9196   81.0344   14.0780 C.ar    1  UNL1        0.0003
     13 C          62.7774   80.5730   12.9373 C.ar    1  UNL1        0.0000
     14 C          63.7799   81.5072   12.3271 C.ar    1  UNL1        0.0003
     15 C          63.9247   82.9027   12.8577 C.ar    1  UNL1        0.0077
     16 S          64.5040   90.9419   15.4592 S.O2    1  UNL1        0.0054
     17 O          65.4693   90.4901   14.4037 O.2     1  UNL1       -0.1689
     18 O          63.5386   91.3938   16.5146 O.2     1  UNL1       -0.1689
     19 C          64.9761   92.3551   15.2860 C.3     1  UNL1        0.1556
     20 C          67.3745   92.8985   16.1241 C.3     1  UNL1        0.0019
     21 C          66.4215   92.6329   14.9967 C.3     1  UNL1        0.0257
@<TRIPOS>BOND
     1    20    21    1
     2    21    19    1
     3    19    16    1
     4    16    17    2
     5    16    18    2
     6    16     1    1
     7     1     2    2
     8     2     3    1
     9     3     4    2
    10     4     5    1
    11     5     6    2
    12     6    10    1
    13    10    11   ar
    14    11    12   ar
    15    12    13   ar
    16    13    14   ar
    17    14    15   ar
    18     6     7    1
    19     7     8    2
    20     8     9    1
    21     9     1    1
    22     8     4    1
    23    15    10   ar
@<TRIPOS>MOLECULE
*****
 21 23 0 0 0
SMALL
GASTEIGER

@<TRIPOS>ATOM
      1 C          63.4882   89.3494   12.4334 C.2     1  UNL1        0.0919
      2 C          62.6398   89.2404   11.2012 C.2     1  UNL1        0.0183
      3 C          62.1107   87.9044   10.7708 C.2     1  UNL1        0.0511
      4 C          62.4299   86.6776   11.5725 C.2     1  UNL1        0.2322
      5 N          62.0526   85.2366   11.3956 N.2     1  UNL1       -0.0308
      6 C          62.6677   84.4551   12.5186 C.2     1  UNL1        0.3752
      7 N          63.4252   85.4131   13.3895 N.2     1  UNL1       -0.0347
      8 C          63.2783   86.7866   12.8047 C.2     1  UNL1        0.2191
      9 C          63.8074   88.1226   13.2352 C.3     1  UNL1        0.1226
     10 C          62.5465   82.9754   12.7329 C.ar    1  UNL1        0.0884
     11 C          61.9896   82.4475   14.0218 C.ar    1  UNL1        0.0077
     12 C          61.8683   80.9679   14.2362 C.ar    1  UNL1        0.0003
     13 C          62.3040   80.0162   13.1617 C.ar    1  UNL1        0.0000
     14 C          62.8609   80.5442   11.8729 C.ar    1  UNL1        0.0003
     15 C          62.9821   82.0238   11.6585 C.ar    1  UNL1        0.0077
     16 S          64.0173   90.6854   12.8639 S.O2    1  UNL1        0.0054
     17 O          63.7435   91.2348   11.4953 O.2     1  UNL1       -0.1689
     18 O          64.2911   90.1359   14.2326 O.2     1  UNL1       -0.1689
     19 C          64.5464   92.0213   13.2944 C.3     1  UNL1        0.1556
     20 C          66.1544   93.7851   12.2680 C.3     1  UNL1        0.0019
     21 C          65.9305   92.4427   12.8988 C.3     1  UNL1        0.0257
@<TRIPOS>BOND
     1    20    21    1
     2    21    19    1
     3    19    16    1
     4    16    17    2
     5    16    18    2
     6    16     1    1
     7     1     2    2
     8     2     3    1
     9     3     4    2
    10     4     5    1
    11     5     6    2
    12     6    10    1
    13    10    11   ar
    14    11    12   ar
    15    12    13   ar
    16    13    14   ar
    17    14    15   ar
    18     6     7    1
    19     7     8    2
    20     8     9    1
    21     9     1    1
    22     8     4    1
    23    15    10   ar
@<TRIPOS>MOLECULE
*****
 21 23 0 0 0
SMALL
GASTEIGER

@<TRIPOS>ATOM
      1 C          61.2973   88.0274    9.9191 C.2     1  UNL1        0.0919
      2 C          61.7144   86.7857   10.6500 C.2     1  UNL1        0.0183
      3 C          62.6113   86.8862   11.8481 C.2     1  UNL1        0.0511
      4 C          63.0910   88.2283   12.3154 C.2     1  UNL1        0.2322
      5 N          63.9758   88.6368   13.4557 N.2     1  UNL1       -0.0308
      6 C          64.1055   90.1310   13.4296 C.2     1  UNL1        0.3752
      7 N          63.3009   90.6460   12.2732 N.2     1  UNL1       -0.0347
      8 C          62.6739   89.4700   11.5845 C.2     1  UNL1        0.2191
      9 C          61.7770   89.3695   10.3864 C.3     1  UNL1        0.1226
     10 C          64.9003   90.9639   14.3912 C.ar    1  UNL1        0.0884
     11 C          64.2935   91.3873   15.6960 C.ar    1  UNL1        0.0077
     12 C          65.0882   92.2202   16.6576 C.ar    1  UNL1        0.0003
     13 C          66.4898   92.6297   16.3143 C.ar    1  UNL1        0.0000
     14 C          67.0966   92.2064   15.0094 C.ar    1  UNL1        0.0003
     15 C          66.3018   91.3735   14.0479 C.ar    1  UNL1        0.0077
     16 S          60.4004   87.9269    8.7210 S.O2    1  UNL1        0.0054
     17 O          60.7660   86.4801    8.5686 O.2     1  UNL1       -0.1689
     18 O          60.0348   89.3736    8.8733 O.2     1  UNL1       -0.1689
     19 C          59.5035   87.8264    7.5229 C.3     1  UNL1        0.1556
     20 C          59.4511   89.8522    5.8971 C.3     1  UNL1        0.0019
     21 C          58.8168   89.0511    6.9952 C.3     1  UNL1        0.0257
@<TRIPOS>BOND
     1    20    21    1
     2    21    19    1
     3    19    16    1
     4    16    17    2
     5    16    18    2
     6    16     1    1
     7     1     2    2
     8     2     3    1
     9     3     4    2
    10     4     5    1
    11     5     6    2
    12     6    10    1
    13    10    11   ar
    14    11    12   ar
    15    12    13   ar
    16    13    14   ar
    17    14    15   ar
    18     6     7    1
    19     7     8    2
    20     8     9    1
    21     9     1    1
    22     8     4    1
    23    15    10   ar
@<TRIPOS>MOLECULE
*****
 21 23 0 0 0
SMALL
GASTEIGER

@<TRIPOS>ATOM
      1 C          61.0184   87.4920    9.0400 C.2     1  UNL1        0.0919
      2 C          60.1222   88.6928    8.9693 C.2     1  UNL1        0.0183
      3 C          60.3473   89.8521    9.8941 C.2     1  UNL1        0.0511
      4 C          61.4686   89.8107   10.8896 C.2     1  UNL1        0.2322
      5 N          61.9309   90.7955   11.9222 N.2     1  UNL1       -0.0308
      6 C          63.1128   90.2034   12.6311 C.2     1  UNL1        0.3752
      7 N          63.3809   88.8526   12.0367 N.2     1  UNL1       -0.0347
      8 C          62.3647   88.6099   10.9604 C.2     1  UNL1        0.2191
      9 C          62.1396   87.4505   10.0356 C.3     1  UNL1        0.1226
     10 C          63.8902   90.8489   13.7399 C.ar    1  UNL1        0.0884
     11 C          65.1220   91.6455   13.4271 C.ar    1  UNL1        0.0077
     12 C          65.8994   92.2909   14.5358 C.ar    1  UNL1        0.0003
     13 C          65.4448   92.1397   15.9572 C.ar    1  UNL1        0.0000
     14 C          64.2129   91.3431   16.2699 C.ar    1  UNL1        0.0003
     15 C          63.4356   90.6977   15.1613 C.ar    1  UNL1        0.0077
     16 S          60.7933   86.3326    8.1152 S.O2    1  UNL1        0.0054
     17 O          59.3996   86.8179    7.8462 O.2     1  UNL1       -0.1689
     18 O          62.1869   85.8474    8.3843 O.2     1  UNL1       -0.1689
     19 C          60.5682   85.1733    7.1904 C.3     1  UNL1        0.1556
     20 C          61.6987   84.2346    5.0479 C.3     1  UNL1        0.0019
     21 C          61.7354   84.5095    6.5220 C.3     1  UNL1        0.0257
@<TRIPOS>BOND
     1    20    21    1
     2    21    19    1
     3    19    16    1
     4    16    17    2
     5    16    18    2
     6    16     1    1
     7     1     2    2
     8     2     3    1
     9     3     4    2
    10     4     5    1
    11     5     6    2
    12     6    10    1
    13    10    11   ar
    14    11    12   ar
    15    12    13   ar
    16    13    14   ar
    17    14    15   ar
    18     6     7    1
    19     7     8    2
    20     8     9    1
    21     9     1    1
    22     8     4    1
    23    15    10   ar
@<TRIPOS>MOLECULE
*****
 21 23 0 0 0
SMALL
GASTEIGER

@<TRIPOS>ATOM
      1 C          60.2409   88.4127    8.6192 C.2     1  UNL1        0.0919
      2 C          60.8982   89.3756    9.5630 C.2     1  UNL1        0.0183
      3 C          61.6967   88.8610   10.7239 C.2     1  UNL1        0.0511
      4 C          61.8379   87.3835   10.9409 C.2     1  UNL1        0.2322
      5 N          62.5570   86.5872   11.9891 N.2     1  UNL1       -0.0308
      6 C          62.3442   85.1321   11.6931 C.2     1  UNL1        0.3752
      7 N          61.4935   85.0292   10.4619 N.2     1  UNL1       -0.0347
      8 C          61.1806   86.4207    9.9971 C.2     1  UNL1        0.2191
      9 C          60.3821   86.9353    8.8362 C.3     1  UNL1        0.1226
     10 C          62.8868   83.9820   12.4886 C.ar    1  UNL1        0.0884
     11 C          62.7539   82.5814   11.9684 C.ar    1  UNL1        0.0077
     12 C          63.2965   81.4312   12.7639 C.ar    1  UNL1        0.0003
     13 C          63.9719   81.6817   14.0795 C.ar    1  UNL1        0.0000
     14 C          64.1047   83.0824   14.5997 C.ar    1  UNL1        0.0003
     15 C          63.5622   84.2325   13.8043 C.ar    1  UNL1        0.0077
     16 S          59.4423   88.9273    7.4584 S.O2    1  UNL1        0.0054
     17 O          60.2334   90.2016    7.4791 O.2     1  UNL1       -0.1689
     18 O          58.6512   87.6531    7.4377 O.2     1  UNL1       -0.1689
     19 C          58.6438   89.4419    6.2976 C.3     1  UNL1        0.1556
     20 C          58.0444   91.5893    4.9636 C.3     1  UNL1        0.0019
     21 C          59.0717   90.6926    5.5885 C.3     1  UNL1        0.0257
@<TRIPOS>BOND
     1    20    21    1
     2    21    19    1
     3    19    16    1
     4    16    17    2
     5    16    18    2
     6    16     1    1
     7     1     2    2
     8     2     3    1
     9     3     4    2
    10     4     5    1
    11     5     6    2
    12     6    10    1
    13    10    11   ar
    14    11    12   ar
    15    12    13   ar
    16    13    14   ar
    17    14    15   ar
    18     6     7    1
    19     7     8    2
    20     8     9    1
    21     9     1    1
    22     8     4    1
    23    15    10   ar
