@<TRIPOS>MOLECULE
*****
 33 36 0 0 0
SMALL
GASTEIGER

@<TRIPOS>ATOM
      1 C          62.3250   86.6563   10.7073 C.3     1  UNL1        0.1548
      2 C          61.9415   86.1087    9.3645 C.ar    1  UNL1        0.0028
      3 C          60.5500   86.3099    8.8420 C.ar    1  UNL1       -0.0023
      4 C          60.1665   85.7623    7.4992 C.ar    1  UNL1       -0.0003
      5 C          61.1747   85.0135    6.6790 C.ar    1  UNL1       -0.0000
      6 C          62.5663   84.8123    7.2014 C.ar    1  UNL1       -0.0003
      7 C          62.9497   85.3599    8.5442 C.ar    1  UNL1       -0.0023
      8 N          63.3842   85.9737   11.5210 N.pl3   1  UNL1       -0.3245
      9 H          64.3299   86.2220   11.4057 H       1  UNL1        0.1474
     10 C          62.3665   82.4488   13.0340 C.ar    1  UNL1        0.1430
     11 C          62.7481   83.5098   12.0447 C.ar    1  UNL1        0.0514
     12 C          63.0026   84.9128   12.5104 C.ar    1  UNL1        0.0512
     13 C          62.8757   85.2548   13.9653 C.ar    1  UNL1        0.0514
     14 C          62.4941   84.1939   14.9546 C.ar    1  UNL1        0.1429
     15 C          62.2395   82.7909   14.4890 C.ar    1  UNL1        0.0738
     16 C          62.3350   79.8936   13.5025 C.3     1  UNL1        0.2525
     17 O          62.1119   81.0458   12.5685 O.3     1  UNL1       -0.4713
     18 O          62.3671   84.5359   16.4095 O.3     1  UNL1       -0.4726
     19 C          63.1999   85.6366   16.9967 C.3     1  UNL1        0.2370
     20 C          62.5392   86.8685   17.5407 C.3     1  UNL1        0.1847
     21 O          62.7889   88.2000   16.8968 O.3     1  UNL1       -0.3784
     22 H          63.7189   88.4480   17.0171 H       1  UNL1        0.2106
     23 C          61.6492   87.8866   11.2364 C.2     1  UNL1        0.1964
     24 O          60.2578   87.7987   11.7896 O.2     1  UNL1       -0.2892
     25 C          62.3649   89.2046   11.2122 C.2     1  UNL1        0.0569
     26 C          62.2630   90.2436   10.1352 C.2     1  UNL1        0.1014
     27 N          63.1433   91.3961   10.5182 N.2     1  UNL1       -0.2477
     28 C          63.7893   91.0694   11.8320 C.2     1  UNL1        0.0635
     29 C          64.7535   91.8302   12.6931 C.3     1  UNL1        0.0717
     30 C          65.2366   91.2365   13.9831 C.2     1  UNL1       -0.0198
     31 C          64.7555   89.8821   14.4120 C.2     1  UNL1       -0.0041
     32 C          63.7913   89.1213   13.5509 C.2     1  UNL1        0.0010
     33 C          63.3083   89.7149   12.2609 C.2     1  UNL1        0.0182
@<TRIPOS>BOND
     1    16    17    1
     2    17    10    1
     3    10    11   ar
     4    11    12   ar
     5    12     8    1
     6     8     1    1
     7     1    23    1
     8    23    24    2
     9    23    25    1
    10    25    26    2
    11    26    27    1
    12    27    28    2
    13    28    29    1
    14    29    30    1
    15    30    31    2
    16    31    32    1
    17    32    33    2
    18     1     2    1
    19     2     3   ar
    20     3     4   ar
    21     4     5   ar
    22     5     6   ar
    23     6     7   ar
    24    12    13   ar
    25    13    14   ar
    26    14    18    1
    27    18    19    1
    28    19    20    1
    29    20    21    1
    30    14    15   ar
    31    15    10   ar
    32    33    25    1
    33     7     2   ar
    34    33    28    1
    35     8     9    1
    36    21    22    1
@<TRIPOS>MOLECULE
*****
 33 36 0 0 0
SMALL
GASTEIGER

@<TRIPOS>ATOM
      1 C          62.4189   86.6219   10.7131 C.3     1  UNL1        0.1548
      2 C          61.9995   86.0819    9.3780 C.ar    1  UNL1        0.0028
      3 C          62.9827   85.3300    8.5307 C.ar    1  UNL1       -0.0023
      4 C          62.5633   84.7899    7.1956 C.ar    1  UNL1       -0.0003
      5 C          61.1608   85.0019    6.7079 C.ar    1  UNL1       -0.0000
      6 C          60.1776   85.7538    7.5552 C.ar    1  UNL1       -0.0003
      7 C          60.5970   86.2938    8.8903 C.ar    1  UNL1       -0.0023
      8 N          63.5177   85.9503   11.4822 N.pl3   1  UNL1       -0.3245
      9 H          64.4402   85.9668   11.1387 H       1  UNL1        0.1474
     10 C          63.2866   85.1933   15.3711 C.ar    1  UNL1        0.1430
     11 C          63.5932   85.8898   14.0784 C.ar    1  UNL1        0.0514
     12 C          63.2112   85.2537   12.7748 C.ar    1  UNL1        0.0512
     13 C          62.5227   83.9212   12.7637 C.ar    1  UNL1        0.0514
     14 C          62.2161   83.2246   14.0564 C.ar    1  UNL1        0.1429
     15 C          62.5981   83.8607   15.3600 C.ar    1  UNL1        0.0738
     16 C          62.6046   86.3447   17.5980 C.3     1  UNL1        0.2525
     17 O          63.6686   85.8293   16.6748 O.3     1  UNL1       -0.4713
     18 O          61.5276   81.8920   14.0453 O.3     1  UNL1       -0.4726
     19 C          62.3346   80.6317   13.9447 C.3     1  UNL1        0.2370
     20 C          62.6106   80.0229   12.6019 C.3     1  UNL1        0.1847
     21 O          62.9308   80.9036   11.4307 O.3     1  UNL1       -0.3784
     22 H          62.1545   81.4413   11.2087 H       1  UNL1        0.2106
     23 C          61.7394   87.8336   11.2791 C.2     1  UNL1        0.1964
     24 O          60.3765   87.7108   11.8931 O.2     1  UNL1       -0.2892
     25 C          62.4230   89.1679   11.2311 C.2     1  UNL1        0.0569
     26 C          62.2991   90.1830   10.1337 C.2     1  UNL1        0.1014
     27 N          63.1500   91.3638   10.4964 N.2     1  UNL1       -0.2477
     28 C          63.7999   91.0785   11.8178 C.2     1  UNL1        0.0635
     29 C          64.7428   91.8791   12.6663 C.3     1  UNL1        0.0717
     30 C          65.2363   91.3226   13.9688 C.2     1  UNL1       -0.0198
     31 C          64.7870   89.9654   14.4229 C.2     1  UNL1       -0.0041
     32 C          63.8441   89.1648   13.5744 C.2     1  UNL1        0.0010
     33 C          63.3506   89.7213   12.2719 C.2     1  UNL1        0.0182
@<TRIPOS>BOND
     1    16    17    1
     2    17    10    1
     3    10    11   ar
     4    11    12   ar
     5    12     8    1
     6     8     1    1
     7     1    23    1
     8    23    24    2
     9    23    25    1
    10    25    26    2
    11    26    27    1
    12    27    28    2
    13    28    29    1
    14    29    30    1
    15    30    31    2
    16    31    32    1
    17    32    33    2
    18     1     2    1
    19     2     3   ar
    20     3     4   ar
    21     4     5   ar
    22     5     6   ar
    23     6     7   ar
    24    12    13   ar
    25    13    14   ar
    26    14    18    1
    27    18    19    1
    28    19    20    1
    29    20    21    1
    30    14    15   ar
    31    15    10   ar
    32    33    25    1
    33     7     2   ar
    34    33    28    1
    35     8     9    1
    36    21    22    1
@<TRIPOS>MOLECULE
*****
 33 36 0 0 0
SMALL
GASTEIGER

@<TRIPOS>ATOM
      1 C          61.9086   88.1535   11.0780 C.3     1  UNL1        0.1548
      2 C          61.0208   87.9980    9.8790 C.ar    1  UNL1        0.0028
      3 C          60.5515   89.2105    9.1309 C.ar    1  UNL1       -0.0023
      4 C          59.6637   89.0550    7.9319 C.ar    1  UNL1       -0.0003
      5 C          59.2452   87.6869    7.4810 C.ar    1  UNL1       -0.0000
      6 C          59.7144   86.4744    8.2291 C.ar    1  UNL1       -0.0003
      7 C          60.6023   86.6299    9.4281 C.ar    1  UNL1       -0.0023
      8 N          63.1205   87.2830   11.2318 N.pl3   1  UNL1       -0.3245
      9 H          63.9359   87.4789   10.7161 H       1  UNL1        0.1474
     10 C          62.6869   83.5839   12.6022 C.ar    1  UNL1        0.1430
     11 C          62.7174   84.7529   11.6629 C.ar    1  UNL1        0.0514
     12 C          63.0900   86.1141   12.1712 C.ar    1  UNL1        0.0512
     13 C          63.4321   86.3062   13.6190 C.ar    1  UNL1        0.0514
     14 C          63.4016   85.1372   14.5584 C.ar    1  UNL1        0.1429
     15 C          63.0290   83.7761   14.0500 C.ar    1  UNL1        0.0738
     16 C          62.3105   81.0487   13.0275 C.3     1  UNL1        0.2525
     17 O          62.3143   82.2227   12.0939 O.3     1  UNL1       -0.4713
     18 O          63.7437   85.3294   16.0062 O.3     1  UNL1       -0.4726
     19 C          62.6535   85.5602   17.0102 C.3     1  UNL1        0.2370
     20 C          62.6717   86.7910   17.8674 C.3     1  UNL1        0.1847
     21 O          63.0961   88.1057   17.2832 O.3     1  UNL1       -0.3784
     22 H          64.0341   88.0636   17.0397 H       1  UNL1        0.2106
     23 C          61.5845   89.1795   12.1232 C.2     1  UNL1        0.1964
     24 O          60.1560   89.4460   12.4949 O.2     1  UNL1       -0.2892
     25 C          62.6890   89.9388   12.7966 C.2     1  UNL1        0.0569
     26 C          63.0571   89.8576   14.2485 C.2     1  UNL1        0.1014
     27 N          64.2149   90.7813   14.4855 N.2     1  UNL1       -0.2477
     28 C          64.5624   91.4335   13.1801 C.2     1  UNL1        0.0635
     29 C          65.6157   92.4341   12.8071 C.3     1  UNL1        0.0717
     30 C          65.7259   92.9141   11.3903 C.2     1  UNL1       -0.0198
     31 C          64.7829   92.3934   10.3465 C.2     1  UNL1       -0.0041
     32 C          63.7296   91.3928   10.7195 C.2     1  UNL1        0.0010
     33 C          63.6193   90.9128   12.1363 C.2     1  UNL1        0.0182
@<TRIPOS>BOND
     1    16    17    1
     2    17    10    1
     3    10    11   ar
     4    11    12   ar
     5    12     8    1
     6     8     1    1
     7     1    23    1
     8    23    24    2
     9    23    25    1
    10    25    26    2
    11    26    27    1
    12    27    28    2
    13    28    29    1
    14    29    30    1
    15    30    31    2
    16    31    32    1
    17    32    33    2
    18     1     2    1
    19     2     3   ar
    20     3     4   ar
    21     4     5   ar
    22     5     6   ar
    23     6     7   ar
    24    12    13   ar
    25    13    14   ar
    26    14    18    1
    27    18    19    1
    28    19    20    1
    29    20    21    1
    30    14    15   ar
    31    15    10   ar
    32    33    25    1
    33     7     2   ar
    34    33    28    1
    35     8     9    1
    36    21    22    1
@<TRIPOS>MOLECULE
*****
 33 36 0 0 0
SMALL
GASTEIGER

@<TRIPOS>ATOM
      1 C          64.1255   89.3700   14.5111 C.3     1  UNL1        0.1548
      2 C          63.7937   88.2824   15.4894 C.ar    1  UNL1        0.0028
      3 C          63.0231   88.6039   16.7355 C.ar    1  UNL1       -0.0023
      4 C          62.6913   87.5163   17.7137 C.ar    1  UNL1       -0.0003
      5 C          63.1301   86.1072   17.4458 C.ar    1  UNL1       -0.0000
      6 C          63.9008   85.7857   16.1998 C.ar    1  UNL1       -0.0003
      7 C          64.2326   86.8733   15.2215 C.ar    1  UNL1       -0.0023
      8 N          64.2648   89.0498   13.0523 N.pl3   1  UNL1       -0.3245
      9 H          65.1321   89.1705   12.6025 H       1  UNL1        0.1474
     10 C          60.8411   88.9992   11.0461 C.ar    1  UNL1        0.1430
     11 C          62.0233   89.5032   11.8195 C.ar    1  UNL1        0.0514
     12 C          63.0826   88.5457   12.2789 C.ar    1  UNL1        0.0512
     13 C          62.9596   87.0841   11.9648 C.ar    1  UNL1        0.0514
     14 C          61.7774   86.5801   11.1913 C.ar    1  UNL1        0.1429
     15 C          60.7181   87.5376   10.7320 C.ar    1  UNL1        0.0738
     16 C          59.0343   90.7856   11.5888 C.3     1  UNL1        0.2525
     17 O          59.7817   89.9567   10.5867 O.3     1  UNL1       -0.4713
     18 O          61.6544   85.1185   10.8773 O.3     1  UNL1       -0.4726
     19 C          62.6975   84.1565   11.3636 C.3     1  UNL1        0.2370
     20 C          63.7624   83.6681   10.4269 C.3     1  UNL1        0.1847
     21 O          64.9751   82.9708   10.9682 O.3     1  UNL1       -0.3784
     22 H          65.4974   83.5942   11.4969 H       1  UNL1        0.2106
     23 C          64.3181   90.7779   14.9917 C.2     1  UNL1        0.1964
     24 O          63.4254   91.3339   16.0612 O.2     1  UNL1       -0.2892
     25 C          65.4033   91.6296   14.4026 C.2     1  UNL1        0.0569
     26 C          66.6193   92.1314   15.1233 C.2     1  UNL1        0.1014
     27 N          67.4305   92.9409   14.1556 N.2     1  UNL1       -0.2477
     28 C          66.7158   92.9395   12.8368 C.2     1  UNL1        0.0635
     29 C          67.0440   93.5715   11.5167 C.3     1  UNL1        0.0717
     30 C          66.1193   93.3931   10.3492 C.2     1  UNL1       -0.0198
     31 C          64.8664   92.5826   10.5019 C.2     1  UNL1       -0.0041
     32 C          64.5382   91.9506   11.8220 C.2     1  UNL1        0.0010
     33 C          65.4629   92.1291   12.9895 C.2     1  UNL1        0.0182
@<TRIPOS>BOND
     1    16    17    1
     2    17    10    1
     3    10    11   ar
     4    11    12   ar
     5    12     8    1
     6     8     1    1
     7     1    23    1
     8    23    24    2
     9    23    25    1
    10    25    26    2
    11    26    27    1
    12    27    28    2
    13    28    29    1
    14    29    30    1
    15    30    31    2
    16    31    32    1
    17    32    33    2
    18     1     2    1
    19     2     3   ar
    20     3     4   ar
    21     4     5   ar
    22     5     6   ar
    23     6     7   ar
    24    12    13   ar
    25    13    14   ar
    26    14    18    1
    27    18    19    1
    28    19    20    1
    29    20    21    1
    30    14    15   ar
    31    15    10   ar
    32    33    25    1
    33     7     2   ar
    34    33    28    1
    35     8     9    1
    36    21    22    1
@<TRIPOS>MOLECULE
*****
 33 36 0 0 0
SMALL
GASTEIGER

@<TRIPOS>ATOM
      1 C          62.1498   87.3066   11.7619 C.3     1  UNL1        0.1548
      2 C          62.6837   88.6964   11.5786 C.ar    1  UNL1        0.0028
      3 C          62.5720   89.3728   10.2445 C.ar    1  UNL1       -0.0023
      4 C          63.1059   90.7626   10.0612 C.ar    1  UNL1       -0.0003
      5 C          63.7514   91.4758   11.2121 C.ar    1  UNL1       -0.0000
      6 C          63.8631   90.7993   12.5462 C.ar    1  UNL1       -0.0003
      7 C          63.3292   89.4095   12.7295 C.ar    1  UNL1       -0.0023
      8 N          60.7614   86.9702   11.3047 N.pl3   1  UNL1       -0.3245
      9 H          60.0765   86.7090   11.9620 H       1  UNL1        0.1474
     10 C          60.4331   85.9530    7.4828 C.ar    1  UNL1        0.1430
     11 C          60.7781   85.8915    8.9413 C.ar    1  UNL1        0.0514
     12 C          60.4163   87.0318    9.8463 C.ar    1  UNL1        0.0512
     13 C          59.7095   88.2335    9.2928 C.ar    1  UNL1        0.0514
     14 C          59.3645   88.2949    7.8343 C.ar    1  UNL1        0.1429
     15 C          59.7263   87.1547    6.9293 C.ar    1  UNL1        0.0738
     16 C          62.2363   84.4929    6.3139 C.3     1  UNL1        0.2525
     17 O          60.7948   84.8128    6.5777 O.3     1  UNL1       -0.4713
     18 O          58.6578   89.4967    7.2809 O.3     1  UNL1       -0.4726
     19 C          59.0628   90.0582    5.9503 C.3     1  UNL1        0.2370
     20 C          58.1707   91.0375    5.2465 C.3     1  UNL1        0.1847
     21 O          56.6916   90.7958    5.1866 O.3     1  UNL1       -0.3784
     22 H          56.5146   90.0040    4.6550 H       1  UNL1        0.2106
     23 C          63.0045   86.2532   12.4023 C.2     1  UNL1        0.1964
     24 O          63.7792   86.5705   13.6468 O.2     1  UNL1       -0.2892
     25 C          63.0843   84.8826   11.7980 C.2     1  UNL1        0.0569
     26 C          63.4604   84.5642   10.3813 C.2     1  UNL1        0.1014
     27 N          63.4106   83.0746   10.2122 N.2     1  UNL1       -0.2477
     28 C          63.0038   82.4724   11.5244 C.2     1  UNL1        0.0635
     29 C          62.7910   81.0509   11.9534 C.3     1  UNL1        0.0717
     30 C          62.3765   80.7469   13.3626 C.2     1  UNL1       -0.0198
     31 C          62.1748   81.8644   14.3427 C.2     1  UNL1       -0.0041
     32 C          62.3877   83.2858   13.9137 C.2     1  UNL1        0.0010
     33 C          62.8022   83.5898   12.5045 C.2     1  UNL1        0.0182
@<TRIPOS>BOND
     1    16    17    1
     2    17    10    1
     3    10    11   ar
     4    11    12   ar
     5    12     8    1
     6     8     1    1
     7     1    23    1
     8    23    24    2
     9    23    25    1
    10    25    26    2
    11    26    27    1
    12    27    28    2
    13    28    29    1
    14    29    30    1
    15    30    31    2
    16    31    32    1
    17    32    33    2
    18     1     2    1
    19     2     3   ar
    20     3     4   ar
    21     4     5   ar
    22     5     6   ar
    23     6     7   ar
    24    12    13   ar
    25    13    14   ar
    26    14    18    1
    27    18    19    1
    28    19    20    1
    29    20    21    1
    30    14    15   ar
    31    15    10   ar
    32    33    25    1
    33     7     2   ar
    34    33    28    1
    35     8     9    1
    36    21    22    1
@<TRIPOS>MOLECULE
*****
 33 36 0 0 0
SMALL
GASTEIGER

@<TRIPOS>ATOM
      1 C          62.0326   88.2498   11.3114 C.3     1  UNL1        0.1548
      2 C          61.1747   88.0481   10.0976 C.ar    1  UNL1        0.0028
      3 C          60.7983   86.6613    9.6672 C.ar    1  UNL1       -0.0023
      4 C          59.9404   86.4596    8.4534 C.ar    1  UNL1       -0.0003
      5 C          59.4590   87.6447    7.6700 C.ar    1  UNL1       -0.0000
      6 C          59.8353   89.0315    8.1004 C.ar    1  UNL1       -0.0003
      7 C          60.6932   89.2332    9.3143 C.ar    1  UNL1       -0.0023
      8 N          63.2262   87.3709   11.5407 N.pl3   1  UNL1       -0.3245
      9 H          64.0499   87.5138   11.0207 H       1  UNL1        0.1474
     10 C          63.5144   85.4486   15.0006 C.ar    1  UNL1        0.1430
     11 C          63.5756   86.5453   13.9791 C.ar    1  UNL1        0.0514
     12 C          63.1650   86.2741   12.5621 C.ar    1  UNL1        0.0512
     13 C          62.6933   84.9063   12.1666 C.ar    1  UNL1        0.0514
     14 C          62.6321   83.8096   13.1881 C.ar    1  UNL1        0.1429
     15 C          63.0427   84.0807   14.6051 C.ar    1  UNL1        0.0738
     16 C          62.9356   86.2927   17.3886 C.3     1  UNL1        0.2525
     17 O          63.9250   85.7196   16.4177 O.3     1  UNL1       -0.4713
     18 O          62.1603   82.4417   12.7926 O.3     1  UNL1       -0.4726
     19 C          63.1539   81.3938   12.3870 C.3     1  UNL1        0.2370
     20 C          64.5989   81.7572   12.2141 C.3     1  UNL1        0.1847
     21 O          65.0314   82.5699   11.0298 O.3     1  UNL1       -0.3784
     22 H          64.8949   82.0566   10.2182 H       1  UNL1        0.2106
     23 C          61.6967   89.3305   12.2961 C.2     1  UNL1        0.1964
     24 O          60.2638   89.6210   12.6309 O.2     1  UNL1       -0.2892
     25 C          62.7939   90.1206   12.9457 C.2     1  UNL1        0.0569
     26 C          63.1413   90.1123   14.4049 C.2     1  UNL1        0.1014
     27 N          64.2984   91.0443   14.6111 N.2     1  UNL1       -0.2477
     28 C          64.6661   91.6286   13.2794 C.2     1  UNL1        0.0635
     29 C          65.7274   92.6067   12.8711 C.3     1  UNL1        0.0717
     30 C          65.8590   93.0140   11.4335 C.2     1  UNL1       -0.0198
     31 C          64.9291   92.4431   10.4042 C.2     1  UNL1       -0.0041
     32 C          63.8678   91.4650   10.8125 C.2     1  UNL1        0.0010
     33 C          63.7362   91.0577   12.2501 C.2     1  UNL1        0.0182
@<TRIPOS>BOND
     1    16    17    1
     2    17    10    1
     3    10    11   ar
     4    11    12   ar
     5    12     8    1
     6     8     1    1
     7     1    23    1
     8    23    24    2
     9    23    25    1
    10    25    26    2
    11    26    27    1
    12    27    28    2
    13    28    29    1
    14    29    30    1
    15    30    31    2
    16    31    32    1
    17    32    33    2
    18     1     2    1
    19     2     3   ar
    20     3     4   ar
    21     4     5   ar
    22     5     6   ar
    23     6     7   ar
    24    12    13   ar
    25    13    14   ar
    26    14    18    1
    27    18    19    1
    28    19    20    1
    29    20    21    1
    30    14    15   ar
    31    15    10   ar
    32    33    25    1
    33     7     2   ar
    34    33    28    1
    35     8     9    1
    36    21    22    1
@<TRIPOS>MOLECULE
*****
 33 36 0 0 0
SMALL
GASTEIGER

@<TRIPOS>ATOM
      1 C          62.1994   86.5320   11.1921 C.3     1  UNL1        0.1548
      2 C          61.9169   86.1336    9.7739 C.ar    1  UNL1        0.0028
      3 C          63.0157   85.5756    8.9186 C.ar    1  UNL1       -0.0023
      4 C          62.7332   85.1772    7.5003 C.ar    1  UNL1       -0.0003
      5 C          61.3521   85.3367    6.9374 C.ar    1  UNL1       -0.0000
      6 C          60.2534   85.8946    7.7927 C.ar    1  UNL1       -0.0003
      7 C          60.5358   86.2931    9.2110 C.ar    1  UNL1       -0.0023
      8 N          61.6691   87.8294   11.7265 N.pl3   1  UNL1       -0.3245
      9 H          60.7082   87.9270   11.9176 H       1  UNL1        0.1474
     10 C          63.7549   91.1547   11.1425 C.ar    1  UNL1        0.1430
     11 C          62.8214   90.0061   10.8995 C.ar    1  UNL1        0.0514
     12 C          62.6026   88.9780   11.9696 C.ar    1  UNL1        0.0512
     13 C          63.3173   89.0986   13.2829 C.ar    1  UNL1        0.0514
     14 C          64.2508   90.2473   13.5259 C.ar    1  UNL1        0.1429
     15 C          64.4696   91.2753   12.4558 C.ar    1  UNL1        0.0738
     16 C          65.0903   93.1759   10.2035 C.3     1  UNL1        0.2525
     17 O          63.9737   92.1829   10.0724 O.3     1  UNL1       -0.4713
     18 O          64.9656   90.3679   14.8392 O.3     1  UNL1       -0.4726
     19 C          66.1626   91.2634   14.9622 C.3     1  UNL1        0.2370
     20 C          66.0568   92.5581   15.7122 C.3     1  UNL1        0.1847
     21 O          64.9505   92.7617   16.7046 O.3     1  UNL1       -0.3784
     22 H          64.0984   92.7725   16.2412 H       1  UNL1        0.2106
     23 C          63.0122   85.6330   12.0761 C.2     1  UNL1        0.1964
     24 O          63.6332   86.1752   13.3291 O.2     1  UNL1       -0.2892
     25 C          63.2038   84.1918   11.7069 C.2     1  UNL1        0.0569
     26 C          63.9071   83.6809   10.4845 C.2     1  UNL1        0.1014
     27 N          63.8638   82.1819   10.5174 N.2     1  UNL1       -0.2477
     28 C          63.1337   81.7664   11.7602 C.2     1  UNL1        0.0635
     29 C          62.7877   80.4174   12.3174 C.3     1  UNL1        0.0717
     30 C          62.0337   80.3107   13.6097 C.2     1  UNL1       -0.0198
     31 C          61.6259   81.5530   14.3449 C.2     1  UNL1       -0.0041
     32 C          61.9719   82.9019   13.7877 C.2     1  UNL1        0.0010
     33 C          62.7259   83.0087   12.4953 C.2     1  UNL1        0.0182
@<TRIPOS>BOND
     1    16    17    1
     2    17    10    1
     3    10    11   ar
     4    11    12   ar
     5    12     8    1
     6     8     1    1
     7     1    23    1
     8    23    24    2
     9    23    25    1
    10    25    26    2
    11    26    27    1
    12    27    28    2
    13    28    29    1
    14    29    30    1
    15    30    31    2
    16    31    32    1
    17    32    33    2
    18     1     2    1
    19     2     3   ar
    20     3     4   ar
    21     4     5   ar
    22     5     6   ar
    23     6     7   ar
    24    12    13   ar
    25    13    14   ar
    26    14    18    1
    27    18    19    1
    28    19    20    1
    29    20    21    1
    30    14    15   ar
    31    15    10   ar
    32    33    25    1
    33     7     2   ar
    34    33    28    1
    35     8     9    1
    36    21    22    1
@<TRIPOS>MOLECULE
*****
 33 36 0 0 0
SMALL
GASTEIGER

@<TRIPOS>ATOM
      1 C          62.0263   86.6355   11.0466 C.3     1  UNL1        0.1548
      2 C          61.7718   86.1922    9.6363 C.ar    1  UNL1        0.0028
      3 C          60.4012   86.3299    9.0427 C.ar    1  UNL1       -0.0023
      4 C          60.1467   85.8866    7.6324 C.ar    1  UNL1       -0.0003
      5 C          61.2628   85.3057    6.8159 C.ar    1  UNL1       -0.0000
      6 C          62.6335   85.1681    7.4096 C.ar    1  UNL1       -0.0003
      7 C          62.8880   85.6113    8.8198 C.ar    1  UNL1       -0.0023
      8 N          61.4011   87.8985   11.5601 N.pl3   1  UNL1       -0.3245
      9 H          60.4230   87.9612   11.6530 H       1  UNL1        0.1474
     10 C          63.3427   90.5801   13.7485 C.ar    1  UNL1        0.1430
     11 C          62.4778   89.4125   13.3763 C.ar    1  UNL1        0.0514
     12 C          62.2661   89.0661   11.9323 C.ar    1  UNL1        0.0512
     13 C          62.9194   89.8874   10.8605 C.ar    1  UNL1        0.0514
     14 C          63.7843   91.0549   11.2327 C.ar    1  UNL1        0.1429
     15 C          63.9960   91.4013   12.6767 C.ar    1  UNL1        0.0738
     16 C          63.3087   89.8964   16.2548 C.3     1  UNL1        0.2525
     17 O          63.5544   90.9265   15.1926 O.3     1  UNL1       -0.4713
     18 O          64.4376   91.8762   10.1609 O.3     1  UNL1       -0.4726
     19 C          65.3399   93.0149   10.5337 C.3     1  UNL1        0.2370
     20 C          66.8238   92.8056   10.5991 C.3     1  UNL1        0.1847
     21 O          67.4719   92.4319   11.8992 O.3     1  UNL1       -0.3784
     22 H          67.3836   93.1658   12.5272 H       1  UNL1        0.2106
     23 C          62.9061   85.8156   11.9432 C.2     1  UNL1        0.1964
     24 O          63.5583   86.4485   13.1365 O.2     1  UNL1       -0.2892
     25 C          63.1336   84.3630   11.6465 C.2     1  UNL1        0.0569
     26 C          63.8051   83.8070   10.4259 C.2     1  UNL1        0.1014
     27 N          63.8160   82.3117   10.5434 N.2     1  UNL1       -0.2477
     28 C          63.1512   81.9434   11.8366 C.2     1  UNL1        0.0635
     29 C          62.8755   80.6175   12.4815 C.3     1  UNL1        0.0717
     30 C          62.1780   80.5594   13.8081 C.2     1  UNL1       -0.0198
     31 C          61.7562   81.8272   14.4899 C.2     1  UNL1       -0.0041
     32 C          62.0320   83.1531   13.8451 C.2     1  UNL1        0.0010
     33 C          62.7295   83.2112   12.5184 C.2     1  UNL1        0.0182
@<TRIPOS>BOND
     1    16    17    1
     2    17    10    1
     3    10    11   ar
     4    11    12   ar
     5    12     8    1
     6     8     1    1
     7     1    23    1
     8    23    24    2
     9    23    25    1
    10    25    26    2
    11    26    27    1
    12    27    28    2
    13    28    29    1
    14    29    30    1
    15    30    31    2
    16    31    32    1
    17    32    33    2
    18     1     2    1
    19     2     3   ar
    20     3     4   ar
    21     4     5   ar
    22     5     6   ar
    23     6     7   ar
    24    12    13   ar
    25    13    14   ar
    26    14    18    1
    27    18    19    1
    28    19    20    1
    29    20    21    1
    30    14    15   ar
    31    15    10   ar
    32    33    25    1
    33     7     2   ar
    34    33    28    1
    35     8     9    1
    36    21    22    1
@<TRIPOS>MOLECULE
*****
 33 36 0 0 0
SMALL
GASTEIGER

@<TRIPOS>ATOM
      1 C          60.7841   88.2028   10.9829 C.3     1  UNL1        0.1548
      2 C          60.1961   88.1191    9.6055 C.ar    1  UNL1        0.0028
      3 C          60.3255   89.2789    8.6631 C.ar    1  UNL1       -0.0023
      4 C          59.7375   89.1952    7.2856 C.ar    1  UNL1       -0.0003
      5 C          59.0202   87.9518    6.8507 C.ar    1  UNL1       -0.0000
      6 C          58.8909   86.7920    7.7931 C.ar    1  UNL1       -0.0003
      7 C          59.4789   86.8756    9.1705 C.ar    1  UNL1       -0.0023
      8 N          61.2446   86.9563   11.6788 N.pl3   1  UNL1       -0.3245
      9 H          61.0143   86.8068   12.6243 H       1  UNL1        0.1474
     10 C          62.9950   85.0072    8.6978 C.ar    1  UNL1        0.1430
     11 C          62.1838   86.0258    9.4424 C.ar    1  UNL1        0.0514
     12 C          62.0558   85.9377   10.9343 C.ar    1  UNL1        0.0512
     13 C          62.7390   84.8310   11.6816 C.ar    1  UNL1        0.0514
     14 C          63.5502   83.8125   10.9370 C.ar    1  UNL1        0.1429
     15 C          63.6782   83.9006    9.4451 C.ar    1  UNL1        0.0738
     16 C          62.0410   84.5426    6.3263 C.3     1  UNL1        0.2525
     17 O          63.1230   85.0952    7.2058 O.3     1  UNL1       -0.4713
     18 O          64.2333   82.7058   11.6844 O.3     1  UNL1       -0.4726
     19 C          64.0745   82.5956   13.1718 C.3     1  UNL1        0.2370
     20 C          63.0003   81.7219   13.7488 C.3     1  UNL1        0.1847
     21 O          62.3807   82.0687   15.0700 O.3     1  UNL1       -0.3784
     22 H          63.0473   81.9902   15.7703 H       1  UNL1        0.2106
     23 C          60.9116   89.5330   11.6644 C.2     1  UNL1        0.1964
     24 O          59.7470   90.1046   12.4172 O.2     1  UNL1       -0.2892
     25 C          62.2038   90.2914   11.5931 C.2     1  UNL1        0.0569
     26 C          62.7592   90.9748   10.3788 C.2     1  UNL1        0.1014
     27 N          64.0661   91.6053   10.7589 N.2     1  UNL1       -0.2477
     28 C          64.3184   91.3117   12.2081 C.2     1  UNL1        0.0635
     29 C          65.4475   91.6788   13.1247 C.3     1  UNL1        0.0717
     30 C          65.4256   91.2339   14.5570 C.2     1  UNL1       -0.0198
     31 C          64.2746   90.4218   15.0727 C.2     1  UNL1       -0.0041
     32 C          63.1455   90.0547   14.1560 C.2     1  UNL1        0.0010
     33 C          63.1674   90.4996   12.7237 C.2     1  UNL1        0.0182
@<TRIPOS>BOND
     1    16    17    1
     2    17    10    1
     3    10    11   ar
     4    11    12   ar
     5    12     8    1
     6     8     1    1
     7     1    23    1
     8    23    24    2
     9    23    25    1
    10    25    26    2
    11    26    27    1
    12    27    28    2
    13    28    29    1
    14    29    30    1
    15    30    31    2
    16    31    32    1
    17    32    33    2
    18     1     2    1
    19     2     3   ar
    20     3     4   ar
    21     4     5   ar
    22     5     6   ar
    23     6     7   ar
    24    12    13   ar
    25    13    14   ar
    26    14    18    1
    27    18    19    1
    28    19    20    1
    29    20    21    1
    30    14    15   ar
    31    15    10   ar
    32    33    25    1
    33     7     2   ar
    34    33    28    1
    35     8     9    1
    36    21    22    1
