@<TRIPOS>MOLECULE
*****
 29 32 0 0 0
SMALL
GASTEIGER

@<TRIPOS>ATOM
      1 C          62.5530   89.5640   11.8060 C.ar    1  UNL1        0.1534
      2 C          63.1398   89.6991   13.1799 C.ar    1  UNL1        0.0351
      3 C          64.1281   90.7896   13.4695 C.ar    1  UNL1        0.0722
      4 CL         64.7149   90.9247   14.8434 Cl      1  UNL1       -0.0809
      5 C          64.5296   91.7452   12.3852 C.ar    1  UNL1        0.0577
      6 C          63.9429   91.6102   11.0114 C.ar    1  UNL1        0.0462
      7 C          62.9546   90.5196   10.7218 C.ar    1  UNL1        0.1602
      8 F          62.3678   90.3846    9.3479 F       1  UNL1       -0.2027
      9 O          62.6400   87.4465   11.7150 O.2     1  UNL1       -0.1498
     10 S          61.5647   88.4734   11.5166 S.O2    1  UNL1        0.0772
     11 O          60.4896   89.5002   11.3181 O.2     1  UNL1       -0.1498
     12 N          60.5765   87.3827   11.2271 N.pl3   1  UNL1       -0.1936
     13 H          60.1059   86.9357   11.9673 H       1  UNL1        0.1758
     14 C          60.3054   86.9731    9.8098 C.ar    1  UNL1        0.1786
     15 N          59.1171   87.3758    8.9877 N.ar    1  UNL1       -0.2214
     16 C          59.2522   86.7405    7.6355 C.ar    1  UNL1        0.1079
     17 C          60.5238   85.9451    7.6221 C.ar    1  UNL1        0.0588
     18 S          61.1747   86.0888    8.9659 S.2     1  UNL1       -0.0497
     19 N          65.5179   92.8358   12.6749 N.pl3   1  UNL1       -0.3309
     20 H          65.2930   93.5456   13.3188 H       1  UNL1        0.1469
     21 C          66.8489   92.8448   11.9833 C.3     1  UNL1        0.1018
     22 C          67.0735   93.7396   10.8005 C.3     1  UNL1        0.0634
     23 C          66.3178   94.5198   11.8350 C.3     1  UNL1        0.0178
     24 C          66.0754   95.8967   11.2916 C.3     1  UNL1        0.0187
     25 C          66.6812   95.9675    9.9212 C.3     1  UNL1        0.0721
     26 N          67.2980   94.6343    9.6176 N.3     1  UNL1       -0.2736
     27 C          68.0536   93.8542    8.5831 C.3     1  UNL1        0.0721
     28 C          68.2961   92.4772    9.1265 C.3     1  UNL1        0.0187
     29 C          67.6903   92.4064   10.4969 C.3     1  UNL1        0.0178
@<TRIPOS>BOND
     1     9    10    2
     2    10    11    2
     3    10    12    1
     4    12    14    1
     5    14    15   ar
     6    15    16   ar
     7    16    17   ar
     8    17    18   ar
     9    10     1    1
    10     1     2   ar
    11     2     3   ar
    12     3     4    1
    13     3     5   ar
    14     5    19    1
    15    19    21    1
    16    21    22    1
    17    22    23    1
    18    23    24    1
    19    24    25    1
    20    25    26    1
    21    26    27    1
    22    27    28    1
    23    28    29    1
    24     5     6   ar
    25     6     7   ar
    26     7     8    1
    27    18    14   ar
    28     7     1   ar
    29    26    22    1
    30    29    22    1
    31    12    13    1
    32    19    20    1
@<TRIPOS>MOLECULE
*****
 29 32 0 0 0
SMALL
GASTEIGER

@<TRIPOS>ATOM
      1 C          65.7858   92.5354   12.4349 C.ar    1  UNL1        0.1534
      2 C          64.5823   91.8947   11.8092 C.ar    1  UNL1        0.0351
      3 C          63.8857   90.7649   12.5077 C.ar    1  UNL1        0.0722
      4 CL         62.6823   90.1242   11.8819 Cl      1  UNL1       -0.0809
      5 C          64.3925   90.2755   13.8319 C.ar    1  UNL1        0.0577
      6 C          65.5959   90.9160   14.4577 C.ar    1  UNL1        0.0462
      7 C          66.2925   92.0460   13.7591 C.ar    1  UNL1        0.1602
      8 F          67.4959   92.6865   14.3849 F       1  UNL1       -0.2027
      9 O          66.8455   92.7445   10.6092 O.2     1  UNL1       -0.1498
     10 S          66.4823   93.6653   11.7363 S.O2    1  UNL1        0.0772
     11 O          66.1192   94.5860   12.8633 O.2     1  UNL1       -0.1498
     12 N          67.1789   94.7951   11.0376 N.pl3   1  UNL1       -0.1936
     13 H          68.0965   95.0421   11.2950 H       1  UNL1        0.1758
     14 C          66.4774   95.5487    9.9466 C.ar    1  UNL1        0.1786
     15 N          65.1457   96.2293   10.0609 N.ar    1  UNL1       -0.2214
     16 C          64.8297   96.8552    8.7348 C.ar    1  UNL1        0.1079
     17 C          65.9662   96.5613    7.8010 C.ar    1  UNL1        0.0588
     18 S          66.9845   95.7538    8.5500 S.2     1  UNL1       -0.0497
     19 N          63.6958   89.1456   14.5305 N.pl3   1  UNL1       -0.3309
     20 H          62.7603   89.2476   14.8195 H       1  UNL1        0.1469
     21 C          64.4246   87.8602   14.7886 C.3     1  UNL1        0.1018
     22 C          63.7159   86.7163   15.4514 C.3     1  UNL1        0.0634
     23 C          64.3050   86.2145   14.1664 C.3     1  UNL1        0.0178
     24 C          63.9603   84.7606   14.0351 C.3     1  UNL1        0.0187
     25 C          63.1582   84.3637   15.2389 C.3     1  UNL1        0.0721
     26 N          63.0071   85.5725   16.1142 N.3     1  UNL1       -0.2736
     27 C          62.4180   86.0742   17.3992 C.3     1  UNL1        0.0721
     28 C          62.7627   87.5282   17.5306 C.3     1  UNL1        0.0187
     29 C          63.5648   87.9250   16.3267 C.3     1  UNL1        0.0178
@<TRIPOS>BOND
     1     9    10    2
     2    10    11    2
     3    10    12    1
     4    12    14    1
     5    14    15   ar
     6    15    16   ar
     7    16    17   ar
     8    17    18   ar
     9    10     1    1
    10     1     2   ar
    11     2     3   ar
    12     3     4    1
    13     3     5   ar
    14     5    19    1
    15    19    21    1
    16    21    22    1
    17    22    23    1
    18    23    24    1
    19    24    25    1
    20    25    26    1
    21    26    27    1
    22    27    28    1
    23    28    29    1
    24     5     6   ar
    25     6     7   ar
    26     7     8    1
    27    18    14   ar
    28     7     1   ar
    29    26    22    1
    30    29    22    1
    31    12    13    1
    32    19    20    1
@<TRIPOS>MOLECULE
*****
 29 32 0 0 0
SMALL
GASTEIGER

@<TRIPOS>ATOM
      1 C          63.6856   85.8310   13.9311 C.ar    1  UNL1        0.1534
      2 C          63.0810   86.2087   12.6112 C.ar    1  UNL1        0.0351
      3 C          63.0713   87.6434   12.1738 C.ar    1  UNL1        0.0722
      4 CL         62.4667   88.0210   10.8539 Cl      1  UNL1       -0.0809
      5 C          63.6660   88.7006   13.0562 C.ar    1  UNL1        0.0577
      6 C          64.2705   88.3230   14.3761 C.ar    1  UNL1        0.0462
      7 C          64.2803   86.8882   14.8135 C.ar    1  UNL1        0.1602
      8 F          64.8848   86.5106   16.1333 F       1  UNL1       -0.2027
      9 O          62.2247   84.4733   14.6536 O.2     1  UNL1       -0.1498
     10 S          63.6953   84.3963   14.3684 S.O2    1  UNL1        0.0772
     11 O          65.1658   84.3192   14.0832 O.2     1  UNL1       -0.1498
     12 N          63.7049   82.9615   14.8057 N.pl3   1  UNL1       -0.1936
     13 H          64.0006   82.7259   15.7148 H       1  UNL1        0.1758
     14 C          63.2641   81.8856   13.8581 C.ar    1  UNL1        0.1786
     15 N          62.6509   80.5711   14.2403 N.ar    1  UNL1       -0.2214
     16 C          62.3668   79.8083   12.9803 C.ar    1  UNL1        0.1079
     17 C          62.8044   80.6514   11.8194 C.ar    1  UNL1        0.0588
     18 S          63.3590   81.9353   12.3619 S.2     1  UNL1       -0.0497
     19 N          63.6562   90.1353   12.6188 N.pl3   1  UNL1       -0.3309
     20 H          63.2259   90.3883   11.7702 H       1  UNL1        0.1469
     21 C          64.3018   91.1847   13.4743 C.3     1  UNL1        0.1018
     22 C          65.6059   91.7961   13.0551 C.3     1  UNL1        0.0634
     23 C          64.6483   91.9138   11.9065 C.3     1  UNL1        0.0178
     24 C          65.3606   92.5979   10.7775 C.3     1  UNL1        0.0187
     25 C          66.7583   92.9031   11.2283 C.3     1  UNL1        0.0721
     26 N          66.9099   92.4075   12.6360 N.3     1  UNL1       -0.2736
     27 C          67.8675   92.2898   13.7845 C.3     1  UNL1        0.0721
     28 C          67.1553   91.6057   14.9136 C.3     1  UNL1        0.0187
     29 C          65.7575   91.3006   14.4627 C.3     1  UNL1        0.0178
@<TRIPOS>BOND
     1     9    10    2
     2    10    11    2
     3    10    12    1
     4    12    14    1
     5    14    15   ar
     6    15    16   ar
     7    16    17   ar
     8    17    18   ar
     9    10     1    1
    10     1     2   ar
    11     2     3   ar
    12     3     4    1
    13     3     5   ar
    14     5    19    1
    15    19    21    1
    16    21    22    1
    17    22    23    1
    18    23    24    1
    19    24    25    1
    20    25    26    1
    21    26    27    1
    22    27    28    1
    23    28    29    1
    24     5     6   ar
    25     6     7   ar
    26     7     8    1
    27    18    14   ar
    28     7     1   ar
    29    26    22    1
    30    29    22    1
    31    12    13    1
    32    19    20    1
@<TRIPOS>MOLECULE
*****
 29 32 0 0 0
SMALL
GASTEIGER

@<TRIPOS>ATOM
      1 C          63.9194   90.7814   12.1708 C.ar    1  UNL1        0.1534
      2 C          62.9749   90.8634   11.0082 C.ar    1  UNL1        0.0351
      3 C          62.0962   89.6954   10.6719 C.ar    1  UNL1        0.0722
      4 CL         61.1518   89.7774    9.5093 Cl      1  UNL1       -0.0809
      5 C          62.1618   88.4451   11.4980 C.ar    1  UNL1        0.0577
      6 C          63.1062   88.3629   12.6604 C.ar    1  UNL1        0.0462
      7 C          63.9850   89.5311   12.9969 C.ar    1  UNL1        0.1602
      8 F          64.9293   89.4489   14.1593 F       1  UNL1       -0.2027
      9 O          65.2857   91.9909   11.0891 O.2     1  UNL1       -0.1498
     10 S          64.7981   91.9495   12.5071 S.O2    1  UNL1        0.0772
     11 O          64.3105   91.9082   13.9249 O.2     1  UNL1       -0.1498
     12 N          65.6769   93.1177   12.8433 N.pl3   1  UNL1       -0.1936
     13 H          65.4560   94.0143   12.5017 H       1  UNL1        0.1758
     14 C          66.8922   92.9200   13.6999 C.ar    1  UNL1        0.1786
     15 N          68.0790   92.0668   13.3629 N.ar    1  UNL1       -0.2214
     16 C          69.0545   92.1602   14.4986 C.ar    1  UNL1        0.1079
     17 C          68.4706   93.0711   15.5374 C.ar    1  UNL1        0.0588
     18 S          67.1342   93.5407   15.0438 S.2     1  UNL1       -0.0497
     19 N          61.2830   87.2769   11.1615 N.pl3   1  UNL1       -0.3309
     20 H          60.4126   87.4251   10.7261 H       1  UNL1        0.1469
     21 C          61.7304   85.8831   11.4886 C.3     1  UNL1        0.1018
     22 C          62.5422   85.1038   10.4966 C.3     1  UNL1        0.0634
     23 C          61.6899   86.0762    9.7363 C.3     1  UNL1        0.0178
     24 C          61.9750   85.8979    8.2744 C.3     1  UNL1        0.0187
     25 C          63.0034   84.8153    8.1313 C.3     1  UNL1        0.0721
     26 N          63.3539   84.3245    9.5048 N.3     1  UNL1       -0.2736
     27 C          64.2061   83.3521   10.2651 C.3     1  UNL1        0.0721
     28 C          63.9211   83.5304   11.7270 C.3     1  UNL1        0.0187
     29 C          62.8927   84.6130   11.8700 C.3     1  UNL1        0.0178
@<TRIPOS>BOND
     1     9    10    2
     2    10    11    2
     3    10    12    1
     4    12    14    1
     5    14    15   ar
     6    15    16   ar
     7    16    17   ar
     8    17    18   ar
     9    10     1    1
    10     1     2   ar
    11     2     3   ar
    12     3     4    1
    13     3     5   ar
    14     5    19    1
    15    19    21    1
    16    21    22    1
    17    22    23    1
    18    23    24    1
    19    24    25    1
    20    25    26    1
    21    26    27    1
    22    27    28    1
    23    28    29    1
    24     5     6   ar
    25     6     7   ar
    26     7     8    1
    27    18    14   ar
    28     7     1   ar
    29    26    22    1
    30    29    22    1
    31    12    13    1
    32    19    20    1
@<TRIPOS>MOLECULE
*****
 29 32 0 0 0
SMALL
GASTEIGER

@<TRIPOS>ATOM
      1 C          62.9449   88.8316   11.8547 C.ar    1  UNL1        0.1534
      2 C          63.6424   89.1887   13.1338 C.ar    1  UNL1        0.0351
      3 C          64.3148   90.5221   13.2745 C.ar    1  UNL1        0.0722
      4 CL         65.0123   90.8791   14.5536 Cl      1  UNL1       -0.0809
      5 C          64.2897   91.4985   12.1361 C.ar    1  UNL1        0.0577
      6 C          63.5922   91.1415   10.8570 C.ar    1  UNL1        0.0462
      7 C          62.9198   89.8080   10.7163 C.ar    1  UNL1        0.1602
      8 F          62.2224   89.4510    9.4372 F       1  UNL1       -0.2027
      9 O          63.3716   86.8600   12.5110 O.2     1  UNL1       -0.1498
     10 S          62.2726   87.4982   11.7141 S.O2    1  UNL1        0.0772
     11 O          61.1736   88.1362   10.9173 O.2     1  UNL1       -0.1498
     12 N          61.6003   86.1646   11.5736 N.pl3   1  UNL1       -0.1936
     13 H          60.6274   86.0877   11.7031 H       1  UNL1        0.1758
     14 C          62.4104   84.9482   11.2357 C.ar    1  UNL1        0.1786
     15 N          63.1246   84.6962    9.9410 N.ar    1  UNL1       -0.2214
     16 C          63.8041   83.3625   10.0383 C.ar    1  UNL1        0.1079
     17 C          63.5099   82.7902   11.3933 C.ar    1  UNL1        0.0588
     18 S          62.6485   83.7703   12.1333 S.2     1  UNL1       -0.0497
     19 N          64.9621   92.8319   12.2768 N.pl3   1  UNL1       -0.3309
     20 H          64.4346   93.6256   12.5238 H       1  UNL1        0.1469
     21 C          66.4383   92.9562   12.0411 C.3     1  UNL1        0.1018
     22 C          66.9481   93.7799   10.8958 C.3     1  UNL1        0.0634
     23 C          67.4409   92.3751   10.7120 C.3     1  UNL1        0.0178
     24 C          68.2553   92.3307    9.4531 C.3     1  UNL1        0.0187
     25 C          68.2659   93.7080    8.8589 C.3     1  UNL1        0.0721
     26 N          67.4580   94.6036    9.7506 N.3     1  UNL1       -0.2736
     27 C          66.9652   96.0084    9.9345 C.3     1  UNL1        0.0721
     28 C          66.1507   96.0529   11.1934 C.3     1  UNL1        0.0187
     29 C          66.1402   94.6755   11.7875 C.3     1  UNL1        0.0178
@<TRIPOS>BOND
     1     9    10    2
     2    10    11    2
     3    10    12    1
     4    12    14    1
     5    14    15   ar
     6    15    16   ar
     7    16    17   ar
     8    17    18   ar
     9    10     1    1
    10     1     2   ar
    11     2     3   ar
    12     3     4    1
    13     3     5   ar
    14     5    19    1
    15    19    21    1
    16    21    22    1
    17    22    23    1
    18    23    24    1
    19    24    25    1
    20    25    26    1
    21    26    27    1
    22    27    28    1
    23    28    29    1
    24     5     6   ar
    25     6     7   ar
    26     7     8    1
    27    18    14   ar
    28     7     1   ar
    29    26    22    1
    30    29    22    1
    31    12    13    1
    32    19    20    1
@<TRIPOS>MOLECULE
*****
 29 32 0 0 0
SMALL
GASTEIGER

@<TRIPOS>ATOM
      1 C          62.9347   88.8297   12.0064 C.ar    1  UNL1        0.1534
      2 C          63.6539   89.1992   13.2698 C.ar    1  UNL1        0.0351
      3 C          64.3390   90.5288   13.3814 C.ar    1  UNL1        0.0722
      4 CL         65.0583   90.8983   14.6449 Cl      1  UNL1       -0.0809
      5 C          64.3050   91.4891   12.2297 C.ar    1  UNL1        0.0577
      6 C          63.5858   91.1198   10.9663 C.ar    1  UNL1        0.0462
      7 C          62.9006   89.7901   10.8546 C.ar    1  UNL1        0.1602
      8 F          62.1814   89.4207    9.5912 F       1  UNL1       -0.2027
      9 O          63.4057   86.8460   12.5916 O.2     1  UNL1       -0.1498
     10 S          62.2496   87.5001   11.8948 S.O2    1  UNL1        0.0772
     11 O          61.0935   88.1541   11.1981 O.2     1  UNL1       -0.1498
     12 N          61.5645   86.1703   11.7833 N.pl3   1  UNL1       -0.1936
     13 H          60.5988   86.0977   11.9602 H       1  UNL1        0.1758
     14 C          62.3509   84.9511   11.4023 C.ar    1  UNL1        0.1786
     15 N          62.6033   83.7568   12.2739 N.ar    1  UNL1       -0.2214
     16 C          63.4314   82.7797   11.4931 C.ar    1  UNL1        0.1079
     17 C          63.6908   83.3702   10.1389 C.ar    1  UNL1        0.0588
     18 S          63.0230   84.7123   10.0827 S.2     1  UNL1       -0.0497
     19 N          64.9901   92.8188   12.3413 N.pl3   1  UNL1       -0.3309
     20 H          64.4728   93.6202   12.5851 H       1  UNL1        0.1469
     21 C          66.4635   92.9276   12.0817 C.3     1  UNL1        0.1018
     22 C          66.9633   93.7450   10.9275 C.3     1  UNL1        0.0634
     23 C          66.1652   94.6461   11.8226 C.3     1  UNL1        0.0178
     24 C          66.1718   96.0204   11.2215 C.3     1  UNL1        0.0187
     25 C          66.9739   95.9687    9.9551 C.3     1  UNL1        0.0721
     26 N          67.4631   94.5624    9.7733 N.3     1  UNL1       -0.2736
     27 C          68.2611   93.6613    8.8783 C.3     1  UNL1        0.0721
     28 C          68.2545   92.2869    9.4793 C.3     1  UNL1        0.0187
     29 C          67.4524   92.3387   10.7458 C.3     1  UNL1        0.0178
@<TRIPOS>BOND
     1     9    10    2
     2    10    11    2
     3    10    12    1
     4    12    14    1
     5    14    15   ar
     6    15    16   ar
     7    16    17   ar
     8    17    18   ar
     9    10     1    1
    10     1     2   ar
    11     2     3   ar
    12     3     4    1
    13     3     5   ar
    14     5    19    1
    15    19    21    1
    16    21    22    1
    17    22    23    1
    18    23    24    1
    19    24    25    1
    20    25    26    1
    21    26    27    1
    22    27    28    1
    23    28    29    1
    24     5     6   ar
    25     6     7   ar
    26     7     8    1
    27    18    14   ar
    28     7     1   ar
    29    26    22    1
    30    29    22    1
    31    12    13    1
    32    19    20    1
@<TRIPOS>MOLECULE
*****
 29 32 0 0 0
SMALL
GASTEIGER

@<TRIPOS>ATOM
      1 C          64.6761   91.4823   12.0332 C.ar    1  UNL1        0.1534
      2 C          64.7640   90.4578   13.1253 C.ar    1  UNL1        0.0351
      3 C          63.8587   89.2620   13.1065 C.ar    1  UNL1        0.0722
      4 CL         63.9465   88.2375   14.1986 Cl      1  UNL1       -0.0809
      5 C          62.8655   89.0906   11.9956 C.ar    1  UNL1        0.0577
      6 C          62.7776   90.1151   10.9034 C.ar    1  UNL1        0.0462
      7 C          63.6829   91.3109   10.9222 C.ar    1  UNL1        0.1602
      8 F          63.5951   92.3354    9.8301 F       1  UNL1       -0.2027
      9 O          65.1650   92.9710   13.4631 O.2     1  UNL1       -0.1498
     10 S          65.5814   92.6781   12.0521 S.O2    1  UNL1        0.0772
     11 O          65.9979   92.3852   10.6412 O.2     1  UNL1       -0.1498
     12 N          66.4868   93.8739   12.0711 N.pl3   1  UNL1       -0.1936
     13 H          67.0053   94.0859   12.8807 H       1  UNL1        0.1758
     14 C          66.6020   94.7468   10.8567 C.ar    1  UNL1        0.1786
     15 N          67.7121   94.7126    9.8485 N.ar    1  UNL1       -0.2214
     16 C          67.4236   95.7518    8.8059 C.ar    1  UNL1        0.1079
     17 C          66.1352   96.4282    9.1698 C.ar    1  UNL1        0.0588
     18 S          65.6274   95.8070   10.4372 S.2     1  UNL1       -0.0497
     19 N          61.9602   87.8947   11.9767 N.pl3   1  UNL1       -0.3309
     20 H          61.4902   87.6202   12.7971 H       1  UNL1        0.1469
     21 C          61.7710   87.1172   10.7080 C.3     1  UNL1        0.1018
     22 C          62.4301   85.7799   10.5426 C.3     1  UNL1        0.0634
     23 C          62.3495   86.4272    9.1919 C.3     1  UNL1        0.0178
     24 C          62.9589   85.4900    8.1917 C.3     1  UNL1        0.0187
     25 C          63.4160   84.2635    8.9244 C.3     1  UNL1        0.0721
     26 N          63.0892   84.4427   10.3773 N.3     1  UNL1       -0.2736
     27 C          63.1697   83.7954   11.7281 C.3     1  UNL1        0.0721
     28 C          62.5604   84.7326   12.7283 C.3     1  UNL1        0.0187
     29 C          62.1033   85.9591   11.9956 C.3     1  UNL1        0.0178
@<TRIPOS>BOND
     1     9    10    2
     2    10    11    2
     3    10    12    1
     4    12    14    1
     5    14    15   ar
     6    15    16   ar
     7    16    17   ar
     8    17    18   ar
     9    10     1    1
    10     1     2   ar
    11     2     3   ar
    12     3     4    1
    13     3     5   ar
    14     5    19    1
    15    19    21    1
    16    21    22    1
    17    22    23    1
    18    23    24    1
    19    24    25    1
    20    25    26    1
    21    26    27    1
    22    27    28    1
    23    28    29    1
    24     5     6   ar
    25     6     7   ar
    26     7     8    1
    27    18    14   ar
    28     7     1   ar
    29    26    22    1
    30    29    22    1
    31    12    13    1
    32    19    20    1
@<TRIPOS>MOLECULE
*****
 29 32 0 0 0
SMALL
GASTEIGER

@<TRIPOS>ATOM
      1 C          63.3489   85.5389   15.2531 C.ar    1  UNL1        0.1534
      2 C          63.1157   86.4326   16.4351 C.ar    1  UNL1        0.0351
      3 C          63.4446   87.8934   16.3473 C.ar    1  UNL1        0.0722
      4 CL         63.2114   88.7871   17.5293 Cl      1  UNL1       -0.0809
      5 C          64.0066   88.4607   15.0775 C.ar    1  UNL1        0.0577
      6 C          64.2398   87.5670   13.8956 C.ar    1  UNL1        0.0462
      7 C          63.9109   86.1062   13.9833 C.ar    1  UNL1        0.1602
      8 F          64.1441   85.2125   12.8014 F       1  UNL1       -0.2027
      9 O          61.5564   84.4059   15.3107 O.2     1  UNL1       -0.1498
     10 S          63.0199   84.0781   15.3410 S.O2    1  UNL1        0.0772
     11 O          64.4833   83.7504   15.3713 O.2     1  UNL1       -0.1498
     12 N          62.6909   82.6173   15.4289 N.pl3   1  UNL1       -0.1936
     13 H          62.4813   82.2115   16.3011 H       1  UNL1        0.1758
     14 C          62.6812   81.7747   14.1880 C.ar    1  UNL1        0.1786
     15 N          62.6295   80.2764   14.1401 N.ar    1  UNL1       -0.2214
     16 C          62.6379   79.8581   12.6995 C.ar    1  UNL1        0.1079
     17 C          62.6947   81.0979   11.8572 C.ar    1  UNL1        0.0588
     18 S          62.7215   82.2825   12.7771 S.2     1  UNL1       -0.0497
     19 N          64.3355   89.9215   14.9897 N.pl3   1  UNL1       -0.3309
     20 H          64.9303   90.3332   15.6576 H       1  UNL1        0.1469
     21 C          63.7583   90.7552   13.8844 C.3     1  UNL1        0.1018
     22 C          64.6637   91.5661   13.0054 C.3     1  UNL1        0.0634
     23 C          63.5603   91.0154   12.1516 C.3     1  UNL1        0.0178
     24 C          63.7838   91.4860   10.7450 C.3     1  UNL1        0.0187
     25 C          65.0254   92.3276   10.7295 C.3     1  UNL1        0.0721
     26 N          65.5692   92.3771   12.1265 N.3     1  UNL1       -0.2736
     27 C          66.6727   92.9277   12.9804 C.3     1  UNL1        0.0721
     28 C          66.4493   92.4571   14.3871 C.3     1  UNL1        0.0187
     29 C          65.2076   91.6156   14.4025 C.3     1  UNL1        0.0178
@<TRIPOS>BOND
     1     9    10    2
     2    10    11    2
     3    10    12    1
     4    12    14    1
     5    14    15   ar
     6    15    16   ar
     7    16    17   ar
     8    17    18   ar
     9    10     1    1
    10     1     2   ar
    11     2     3   ar
    12     3     4    1
    13     3     5   ar
    14     5    19    1
    15    19    21    1
    16    21    22    1
    17    22    23    1
    18    23    24    1
    19    24    25    1
    20    25    26    1
    21    26    27    1
    22    27    28    1
    23    28    29    1
    24     5     6   ar
    25     6     7   ar
    26     7     8    1
    27    18    14   ar
    28     7     1   ar
    29    26    22    1
    30    29    22    1
    31    12    13    1
    32    19    20    1
@<TRIPOS>MOLECULE
*****
 29 32 0 0 0
SMALL
GASTEIGER

@<TRIPOS>ATOM
      1 C          64.2456   89.2822   14.2864 C.ar    1  UNL1        0.1534
      2 C          65.3474   90.1149   14.8720 C.ar    1  UNL1        0.0351
      3 C          65.7338   91.4109   14.2233 C.ar    1  UNL1        0.0722
      4 CL         66.8356   92.2436   14.8089 Cl      1  UNL1       -0.0809
      5 C          65.0186   91.8743   12.9889 C.ar    1  UNL1        0.0577
      6 C          63.9169   91.0416   12.4033 C.ar    1  UNL1        0.0462
      7 C          63.5304   89.7456   13.0521 C.ar    1  UNL1        0.1602
      8 F          62.4287   88.9130   12.4665 F       1  UNL1       -0.2027
      9 O          63.4672   88.7262   16.1798 O.2     1  UNL1       -0.1498
     10 S          63.8593   87.9862   14.9353 S.O2    1  UNL1        0.0772
     11 O          64.2513   87.2462   13.6909 O.2     1  UNL1       -0.1498
     12 N          63.4728   86.6903   15.5843 N.pl3   1  UNL1       -0.1936
     13 H          63.2004   86.6754   16.5302 H       1  UNL1        0.1758
     14 C          63.5014   85.4169   14.7920 C.ar    1  UNL1        0.1786
     15 N          62.3653   84.8495   13.9938 N.ar    1  UNL1       -0.2214
     16 C          62.8328   83.5692   13.3672 C.ar    1  UNL1        0.1079
     17 C          64.2579   83.3455   13.7782 C.ar    1  UNL1        0.0588
     18 S          64.6712   84.4874   14.6588 S.2     1  UNL1       -0.0497
     19 N          65.4051   93.1703   12.3401 N.pl3   1  UNL1       -0.3309
     20 H          65.6361   93.9494   12.8959 H       1  UNL1        0.1469
     21 C          65.4396   93.2794   10.8445 C.3     1  UNL1        0.1018
     22 C          66.6441   93.8572   10.1623 C.3     1  UNL1        0.0634
     23 C          66.8703   92.3842   10.3333 C.3     1  UNL1        0.0178
     24 C          68.2145   92.0517    9.7568 C.3     1  UNL1        0.0187
     25 C          68.8192   93.3191    9.2294 C.3     1  UNL1        0.0721
     26 N          67.8486   94.4350    9.4800 N.3     1  UNL1       -0.2736
     27 C          67.6224   95.9079    9.3090 C.3     1  UNL1        0.0721
     28 C          66.2781   96.2405    9.8855 C.3     1  UNL1        0.0187
     29 C          65.6735   94.9730   10.4129 C.3     1  UNL1        0.0178
@<TRIPOS>BOND
     1     9    10    2
     2    10    11    2
     3    10    12    1
     4    12    14    1
     5    14    15   ar
     6    15    16   ar
     7    16    17   ar
     8    17    18   ar
     9    10     1    1
    10     1     2   ar
    11     2     3   ar
    12     3     4    1
    13     3     5   ar
    14     5    19    1
    15    19    21    1
    16    21    22    1
    17    22    23    1
    18    23    24    1
    19    24    25    1
    20    25    26    1
    21    26    27    1
    22    27    28    1
    23    28    29    1
    24     5     6   ar
    25     6     7   ar
    26     7     8    1
    27    18    14   ar
    28     7     1   ar
    29    26    22    1
    30    29    22    1
    31    12    13    1
    32    19    20    1
