@<TRIPOS>MOLECULE
*****
 25 28 0 0 0
SMALL
GASTEIGER

@<TRIPOS>ATOM
      1 C          62.8668   90.8593   10.9511 C.ar    1  UNL1        0.1535
      2 C          63.0136   90.3784   12.3643 C.ar    1  UNL1        0.1332
      3 N          64.1838   90.8237   13.1903 N.ar    1  UNL1       -0.2394
      4 C          65.2072   91.7498   12.6030 C.ar    1  UNL1        0.0991
      5 C          65.0604   92.2307   11.1898 C.ar    1  UNL1        0.1004
      6 N          63.8902   91.7854   10.3639 N.ar    1  UNL1       -0.2274
      7 C          66.3775   92.1951   13.4291 C.ar    1  UNL1        0.0222
      8 C          67.7358   91.6084   13.1829 C.ar    1  UNL1        0.0222
      9 C          68.9061   92.0537   14.0090 C.ar    1  UNL1        0.0989
     10 N          68.7179   93.0857   15.0812 N.ar    1  UNL1       -0.2423
     11 C          67.3595   93.6724   15.3273 C.ar    1  UNL1        0.0989
     12 C          66.1893   93.2271   14.5013 C.ar    1  UNL1        0.0222
     13 C          66.0838   93.1569   10.6026 C.ar    1  UNL1        0.0223
     14 C          65.9156   94.6415   10.7351 C.ar    1  UNL1        0.0222
     15 C          66.9390   95.5676   10.1479 C.ar    1  UNL1        0.0989
     16 N          68.1307   95.0092    9.4281 N.ar    1  UNL1       -0.2423
     17 C          68.2989   93.5246    9.2956 C.ar    1  UNL1        0.0989
     18 C          67.2755   92.5984    9.8829 C.ar    1  UNL1        0.0222
     19 O          62.6203   87.9857   10.1254 O.2     1  UNL1       -0.2747
     20 C          61.5733   88.9772    9.7122 C.2     1  UNL1        0.2267
     21 N          61.6965   90.4140   10.1251 N.am    1  UNL1       -0.2681
     22 H          61.0093   91.0647    9.8539 H       1  UNL1        0.1563
     23 C          60.4030   88.5319    8.8862 C.3     1  UNL1        0.0769
     24 C          59.4436   88.7701    7.7580 C.3     1  UNL1        0.0096
     25 C          59.3355   87.5225    8.5837 C.3     1  UNL1        0.0096
@<TRIPOS>BOND
     1    19    20    2
     2    20    21   am
     3    21     1    1
     4     1     2   ar
     5     2     3   ar
     6     3     4   ar
     7     4     7    1
     8     7     8   ar
     9     8     9   ar
    10     9    10   ar
    11    10    11   ar
    12    11    12   ar
    13     4     5   ar
    14     5    13    1
    15    13    14   ar
    16    14    15   ar
    17    15    16   ar
    18    16    17   ar
    19    17    18   ar
    20     5     6   ar
    21    20    23    1
    22    23    24    1
    23    24    25    1
    24     6     1   ar
    25    25    23    1
    26    12     7   ar
    27    18    13   ar
    28    21    22    1
@<TRIPOS>MOLECULE
*****
 25 28 0 0 0
SMALL
GASTEIGER

@<TRIPOS>ATOM
      1 C          63.9029   90.0339   14.4926 C.ar    1  UNL1        0.1535
      2 C          63.3009   90.3593   13.1578 C.ar    1  UNL1        0.1332
      3 N          63.9997   91.3100   12.2316 N.ar    1  UNL1       -0.2394
      4 C          65.3004   91.9354   12.6403 C.ar    1  UNL1        0.0991
      5 C          65.9024   91.6100   13.9750 C.ar    1  UNL1        0.1004
      6 N          65.2037   90.6593   14.9012 N.ar    1  UNL1       -0.2274
      7 C          65.9992   92.8861   11.7140 C.ar    1  UNL1        0.0222
      8 C          65.8832   94.3658   11.9307 C.ar    1  UNL1        0.0222
      9 C          66.5820   95.3166   11.0045 C.ar    1  UNL1        0.0989
     10 N          67.3967   94.7875    9.8615 N.ar    1  UNL1       -0.2423
     11 C          67.5127   93.3077    9.6448 C.ar    1  UNL1        0.0989
     12 C          66.8139   92.3571   10.5710 C.ar    1  UNL1        0.0222
     13 C          67.2032   92.2354   14.3837 C.ar    1  UNL1        0.0223
     14 C          67.2219   93.3154   15.4244 C.ar    1  UNL1        0.0222
     15 C          68.5226   93.9408   15.8330 C.ar    1  UNL1        0.0989
     16 N          69.8047   93.4861   15.2009 N.ar    1  UNL1       -0.2423
     17 C          69.7860   92.4061   14.1602 C.ar    1  UNL1        0.0989
     18 C          68.4852   91.7807   13.7516 C.ar    1  UNL1        0.0222
     19 O          64.9580   87.2498   14.8601 O.2     1  UNL1       -0.2747
     20 C          63.7317   87.6911   15.6026 C.2     1  UNL1        0.2267
     21 N          63.2041   89.0832   15.4188 N.am    1  UNL1       -0.2681
     22 H          62.3992   89.3729   15.9062 H       1  UNL1        0.1563
     23 C          63.0329   86.7404   16.5288 C.3     1  UNL1        0.0769
     24 C          62.3163   85.4432   16.7604 C.3     1  UNL1        0.0096
     25 C          62.5394   86.3909   17.9015 C.3     1  UNL1        0.0096
@<TRIPOS>BOND
     1    19    20    2
     2    20    21   am
     3    21     1    1
     4     1     2   ar
     5     2     3   ar
     6     3     4   ar
     7     4     7    1
     8     7     8   ar
     9     8     9   ar
    10     9    10   ar
    11    10    11   ar
    12    11    12   ar
    13     4     5   ar
    14     5    13    1
    15    13    14   ar
    16    14    15   ar
    17    15    16   ar
    18    16    17   ar
    19    17    18   ar
    20     5     6   ar
    21    20    23    1
    22    23    24    1
    23    24    25    1
    24     6     1   ar
    25    25    23    1
    26    12     7   ar
    27    18    13   ar
    28    21    22    1
@<TRIPOS>MOLECULE
*****
 25 28 0 0 0
SMALL
GASTEIGER

@<TRIPOS>ATOM
      1 C          62.5986   90.5657   12.2318 C.ar    1  UNL1        0.1535
      2 C          62.6676   90.8739   10.7654 C.ar    1  UNL1        0.1332
      3 N          63.8376   91.6325   10.2128 N.ar    1  UNL1       -0.2394
      4 C          64.9387   92.0828   11.1265 C.ar    1  UNL1        0.0991
      5 C          64.8698   91.7746   12.5928 C.ar    1  UNL1        0.1004
      6 N          63.6997   91.0160   13.1454 N.ar    1  UNL1       -0.2274
      7 C          66.1088   92.8415   10.5737 C.ar    1  UNL1        0.0222
      8 C          66.0164   94.3260   10.3802 C.ar    1  UNL1        0.0222
      9 C          67.1865   95.0847    9.8275 C.ar    1  UNL1        0.0989
     10 N          68.4490   94.3587    9.4683 N.ar    1  UNL1       -0.2423
     11 C          68.5414   92.8740    9.6618 C.ar    1  UNL1        0.0989
     12 C          67.3713   92.1155   10.2145 C.ar    1  UNL1        0.0222
     13 C          65.9709   92.2249   13.5065 C.ar    1  UNL1        0.0223
     14 C          66.2433   93.6887   13.6879 C.ar    1  UNL1        0.0222
     15 C          67.3444   94.1391   14.6016 C.ar    1  UNL1        0.0989
     16 N          68.1731   93.1256   15.3338 N.ar    1  UNL1       -0.2423
     17 C          67.9006   91.6618   15.1524 C.ar    1  UNL1        0.0989
     18 C          66.7995   91.2114   14.2387 C.ar    1  UNL1        0.0222
     19 O          59.8640   90.9674   11.0653 O.2     1  UNL1       -0.2747
     20 C          60.0613   90.0079   12.2013 C.2     1  UNL1        0.2267
     21 N          61.4285   89.8070   12.7845 N.am    1  UNL1       -0.2681
     22 H          61.5580   89.1773   13.5301 H       1  UNL1        0.1563
     23 C          58.8912   89.2493   12.7540 C.3     1  UNL1        0.0769
     24 C          58.2679   88.4451   13.8561 C.3     1  UNL1        0.0096
     25 C          57.4879   88.7395   12.6092 C.3     1  UNL1        0.0096
@<TRIPOS>BOND
     1    19    20    2
     2    20    21   am
     3    21     1    1
     4     1     2   ar
     5     2     3   ar
     6     3     4   ar
     7     4     7    1
     8     7     8   ar
     9     8     9   ar
    10     9    10   ar
    11    10    11   ar
    12    11    12   ar
    13     4     5   ar
    14     5    13    1
    15    13    14   ar
    16    14    15   ar
    17    15    16   ar
    18    16    17   ar
    19    17    18   ar
    20     5     6   ar
    21    20    23    1
    22    23    24    1
    23    24    25    1
    24     6     1   ar
    25    25    23    1
    26    12     7   ar
    27    18    13   ar
    28    21    22    1
@<TRIPOS>MOLECULE
*****
 25 28 0 0 0
SMALL
GASTEIGER

@<TRIPOS>ATOM
      1 C          63.4919   88.9819   12.9604 C.ar    1  UNL1        0.1535
      2 C          62.8911   89.7402   11.8142 C.ar    1  UNL1        0.1332
      3 N          62.3107   88.9989   10.6465 N.ar    1  UNL1       -0.2394
      4 C          62.3311   87.4992   10.6251 C.ar    1  UNL1        0.0991
      5 C          62.9319   86.7408   11.7714 C.ar    1  UNL1        0.1004
      6 N          63.5122   87.4822   12.9390 N.ar    1  UNL1       -0.2274
      7 C          61.7506   86.7578    9.4574 C.ar    1  UNL1        0.0222
      8 C          60.2778   86.8274    9.1818 C.ar    1  UNL1        0.0222
      9 C          59.6974   86.0860    8.0141 C.ar    1  UNL1        0.0989
     10 N          60.5899   85.2751    7.1219 N.ar    1  UNL1       -0.2423
     11 C          62.0627   85.2056    7.3975 C.ar    1  UNL1        0.0989
     12 C          62.6431   85.9469    8.5652 C.ar    1  UNL1        0.0222
     13 C          62.9523   85.2411   11.7499 C.ar    1  UNL1        0.0223
     14 C          62.3574   84.4666   12.8884 C.ar    1  UNL1        0.0222
     15 C          62.3778   82.9669   12.8670 C.ar    1  UNL1        0.0989
     16 N          62.9930   82.2417   11.7071 N.ar    1  UNL1       -0.2423
     17 C          63.5879   83.0162   10.5686 C.ar    1  UNL1        0.0989
     18 C          63.5675   84.5159   10.5900 C.ar    1  UNL1        0.0222
     19 O          65.0258   91.5210   12.5130 O.2     1  UNL1       -0.2747
     20 C          64.8392   90.9927   13.9044 C.2     1  UNL1        0.2267
     21 N          64.0723   89.7232   14.1282 N.am    1  UNL1       -0.2681
     22 H          63.9499   89.3766   15.0415 H       1  UNL1        0.1563
     23 C          65.4196   91.7341   15.0722 C.3     1  UNL1        0.0769
     24 C          65.2694   92.3140   16.4474 C.3     1  UNL1        0.0096
     25 C          66.5751   92.4382   15.7196 C.3     1  UNL1        0.0096
@<TRIPOS>BOND
     1    19    20    2
     2    20    21   am
     3    21     1    1
     4     1     2   ar
     5     2     3   ar
     6     3     4   ar
     7     4     7    1
     8     7     8   ar
     9     8     9   ar
    10     9    10   ar
    11    10    11   ar
    12    11    12   ar
    13     4     5   ar
    14     5    13    1
    15    13    14   ar
    16    14    15   ar
    17    15    16   ar
    18    16    17   ar
    19    17    18   ar
    20     5     6   ar
    21    20    23    1
    22    23    24    1
    23    24    25    1
    24     6     1   ar
    25    25    23    1
    26    12     7   ar
    27    18    13   ar
    28    21    22    1
@<TRIPOS>MOLECULE
*****
 25 28 0 0 0
SMALL
GASTEIGER

@<TRIPOS>ATOM
      1 C          63.1492   89.9472   12.8541 C.ar    1  UNL1        0.1535
      2 C          62.0901   90.8583   12.3083 C.ar    1  UNL1        0.1332
      3 N          61.1961   90.3892   11.1990 N.ar    1  UNL1       -0.2394
      4 C          61.3613   89.0089   10.6355 C.ar    1  UNL1        0.0991
      5 C          62.4205   88.0978   11.1813 C.ar    1  UNL1        0.1004
      6 N          63.3144   88.5669   12.2906 N.ar    1  UNL1       -0.2274
      7 C          60.4672   88.5398    9.5261 C.ar    1  UNL1        0.0222
      8 C          59.7973   87.2009    9.6181 C.ar    1  UNL1        0.0222
      9 C          58.9032   86.7317    8.5087 C.ar    1  UNL1        0.0989
     10 N          58.6792   87.6015    7.3074 N.ar    1  UNL1       -0.2423
     11 C          59.3491   88.9405    7.2154 C.ar    1  UNL1        0.0989
     12 C          60.2431   89.4096    8.3247 C.ar    1  UNL1        0.0222
     13 C          62.5856   86.7175   10.6178 C.ar    1  UNL1        0.0223
     14 C          62.8443   86.5318    9.1520 C.ar    1  UNL1        0.0222
     15 C          63.0095   85.1516    8.5885 C.ar    1  UNL1        0.0989
     16 N          62.9160   83.9570    9.4907 N.ar    1  UNL1       -0.2423
     17 C          62.6574   84.1426   10.9565 C.ar    1  UNL1        0.0989
     18 C          62.4922   85.5229   11.5200 C.ar    1  UNL1        0.0222
     19 O          65.3123   91.9488   12.2928 O.2     1  UNL1       -0.2747
     20 C          65.1248   91.4171   13.6828 C.2     1  UNL1        0.2267
     21 N          64.0433   90.4164   13.9635 N.am    1  UNL1       -0.2681
     22 H          63.9202   90.0674   14.8758 H       1  UNL1        0.1563
     23 C          66.0188   91.8862   14.7922 C.3     1  UNL1        0.0769
     24 C          67.3766   91.9530   15.4262 C.3     1  UNL1        0.0096
     25 C          66.2096   92.6321   16.0796 C.3     1  UNL1        0.0096
@<TRIPOS>BOND
     1    19    20    2
     2    20    21   am
     3    21     1    1
     4     1     2   ar
     5     2     3   ar
     6     3     4   ar
     7     4     7    1
     8     7     8   ar
     9     8     9   ar
    10     9    10   ar
    11    10    11   ar
    12    11    12   ar
    13     4     5   ar
    14     5    13    1
    15    13    14   ar
    16    14    15   ar
    17    15    16   ar
    18    16    17   ar
    19    17    18   ar
    20     5     6   ar
    21    20    23    1
    22    23    24    1
    23    24    25    1
    24     6     1   ar
    25    25    23    1
    26    12     7   ar
    27    18    13   ar
    28    21    22    1
@<TRIPOS>MOLECULE
*****
 25 28 0 0 0
SMALL
GASTEIGER

@<TRIPOS>ATOM
      1 C          59.7641   93.7348   -0.5442 C.ar    1  UNL1        0.1535
      2 C          59.2396   95.1030   -0.2235 C.ar    1  UNL1        0.1332
      3 N          57.9581   95.5787   -0.8412 N.ar    1  UNL1       -0.2394
      4 C          57.2012   94.6862   -1.7796 C.ar    1  UNL1        0.0991
      5 C          57.7257   93.3180   -2.1003 C.ar    1  UNL1        0.1004
      6 N          59.0072   92.8423   -1.4826 N.ar    1  UNL1       -0.2274
      7 C          55.9197   95.1619   -2.3972 C.ar    1  UNL1        0.0222
      8 C          55.9388   95.8436   -3.7332 C.ar    1  UNL1        0.0222
      9 C          54.6572   96.3193   -4.3509 C.ar    1  UNL1        0.0989
     10 N          53.3567   96.1134   -3.6325 N.ar    1  UNL1       -0.2423
     11 C          53.3376   95.4317   -2.2964 C.ar    1  UNL1        0.0989
     12 C          54.6191   94.9560   -1.6788 C.ar    1  UNL1        0.0222
     13 C          56.9688   92.4255   -3.0386 C.ar    1  UNL1        0.0223
     14 C          57.0980   92.6141   -4.5211 C.ar    1  UNL1        0.0222
     15 C          56.3411   91.7216   -5.4594 C.ar    1  UNL1        0.0989
     16 N          55.4550   90.6405   -4.9154 N.ar    1  UNL1       -0.2423
     17 C          55.3258   90.4520   -3.4329 C.ar    1  UNL1        0.0989
     18 C          56.0827   91.3444   -2.4945 C.ar    1  UNL1        0.0222
     19 O          59.7930   92.7711    2.2966 O.2     1  UNL1       -0.2747
     20 C          61.0600   92.7773    1.4938 C.2     1  UNL1        0.2267
     21 N          61.0456   93.2591    0.0734 N.am    1  UNL1       -0.2681
     22 H          61.8773   93.2631   -0.4535 H       1  UNL1        0.1563
     23 C          62.3416   92.3015    2.1115 C.3     1  UNL1        0.0769
     24 C          63.8276   92.4221    2.2759 C.3     1  UNL1        0.0096
     25 C          63.0751   91.3570    3.0169 C.3     1  UNL1        0.0096
@<TRIPOS>BOND
     1    19    20    2
     2    20    21   am
     3    21     1    1
     4     1     2   ar
     5     2     3   ar
     6     3     4   ar
     7     4     7    1
     8     7     8   ar
     9     8     9   ar
    10     9    10   ar
    11    10    11   ar
    12    11    12   ar
    13     4     5   ar
    14     5    13    1
    15    13    14   ar
    16    14    15   ar
    17    15    16   ar
    18    16    17   ar
    19    17    18   ar
    20     5     6   ar
    21    20    23    1
    22    23    24    1
    23    24    25    1
    24     6     1   ar
    25    25    23    1
    26    12     7   ar
    27    18    13   ar
    28    21    22    1
