@<TRIPOS>MOLECULE
*****
 33 36 0 0 0
SMALL
GASTEIGER

@<TRIPOS>ATOM
      1 C          64.2822   89.5097   14.4522 C.3     1  UNL1        0.0378
      2 C          64.4513   90.1895   15.7786 C.3     1  UNL1        0.0075
      3 C          64.9068   91.6174   15.8368 C.3     1  UNL1        0.0219
      4 C          65.1932   92.3656   14.5686 C.3     1  UNL1        0.0950
      5 N          65.0240   91.6859   13.2423 N.am    1  UNL1       -0.2637
      6 C          65.3104   92.4341   11.9741 C.2     1  UNL1        0.3077
      7 O          65.1412   91.7542   10.6478 O.2     1  UNL1       -0.2522
      8 N          65.7659   93.8620   12.0324 N.am    1  UNL1       -0.2681
      9 C          64.5685   90.2579   13.1841 C.3     1  UNL1        0.0989
     10 H          65.8770   94.3082   12.9029 H       1  UNL1        0.1564
     11 C          66.0523   94.6102   10.7642 C.ar    1  UNL1        0.0516
     12 C          65.3019   95.8709   10.4514 C.ar    1  UNL1        0.0156
     13 C          65.5882   96.6190    9.1833 C.ar    1  UNL1        0.0127
     14 C          66.6248   96.1065    8.2278 C.ar    1  UNL1        0.0578
     15 CL         66.9111   96.8547    6.9596 Cl      1  UNL1       -0.0822
     16 C          67.3752   94.8459    8.5406 C.ar    1  UNL1        0.0127
     17 C          67.0889   94.0977    9.8088 C.ar    1  UNL1        0.0156
     18 C          63.8897   88.3904   15.3705 C.ar    1  UNL1       -0.0212
     19 C          63.1063   88.6818   16.6160 C.ar    1  UNL1       -0.0042
     20 C          62.7139   87.5625   17.5342 C.ar    1  UNL1       -0.0003
     21 C          63.1048   86.1518   17.2069 C.ar    1  UNL1       -0.0000
     22 C          63.8882   85.8604   15.9614 C.ar    1  UNL1       -0.0003
     23 C          64.2807   86.9797   15.0432 C.ar    1  UNL1       -0.0042
     24 C          63.9767   88.4412   13.4447 C.3     1  UNL1        0.0153
     25 C          63.0529   88.7323   12.2994 C.3     1  UNL1        0.0857
     26 O          62.6771   86.1848   11.9548 O.2     1  UNL1       -0.2749
     27 C          62.3976   87.6043   11.5590 C.2     1  UNL1        0.2258
     28 N          61.4628   87.8960   10.4228 N.am    1  UNL1       -0.2744
     29 C          61.1832   89.3155   10.0269 C.3     1  UNL1        0.1255
     30 C          60.2484   89.6071    8.8907 C.3     1  UNL1        0.1636
     31 O          59.5930   88.4791    8.1503 O.3     1  UNL1       -0.3501
     32 C          59.8726   87.0595    8.5462 C.3     1  UNL1        0.1636
     33 C          60.8074   86.7680    9.6824 C.3     1  UNL1        0.1255
@<TRIPOS>BOND
     1    26    27    2
     2    27    25    1
     3    25    24    1
     4    24     1    1
     5     1    18    1
     6    18    19   ar
     7    19    20   ar
     8    20    21   ar
     9    21    22   ar
    10    22    23   ar
    11     1     2    1
    12     2     3    1
    13     3     4    1
    14     4     5    1
    15     5     6   am
    16     6     7    2
    17     6     8   am
    18     8    11    1
    19    11    12   ar
    20    12    13   ar
    21    13    14   ar
    22    14    15    1
    23    14    16   ar
    24    16    17   ar
    25     5     9    1
    26    27    28   am
    27    28    29    1
    28    29    30    1
    29    30    31    1
    30    31    32    1
    31    32    33    1
    32     9     1    1
    33    33    28    1
    34    23    18   ar
    35    17    11   ar
    36     8    10    1
@<TRIPOS>MOLECULE
*****
 33 36 0 0 0
SMALL
GASTEIGER

@<TRIPOS>ATOM
      1 C          65.8915   91.7384   13.9166 C.3     1  UNL1        0.0378
      2 C          65.4218   91.4250   15.3062 C.3     1  UNL1        0.0075
      3 C          64.1844   90.6025   15.5120 C.3     1  UNL1        0.0219
      4 C          63.4167   90.0934   14.3281 C.3     1  UNL1        0.0950
      5 N          63.8864   90.4069   12.9385 N.am    1  UNL1       -0.2637
      6 C          63.1188   89.8978   11.7546 C.2     1  UNL1        0.3077
      7 O          63.5886   90.2113   10.3650 O.2     1  UNL1       -0.2522
      8 N          61.8814   89.0753   11.9604 N.am    1  UNL1       -0.2681
      9 C          65.1238   91.2294   12.7327 C.3     1  UNL1        0.0989
     10 H          61.5730   88.8696   12.8725 H       1  UNL1        0.1564
     11 C          61.1138   88.5663   10.7765 C.ar    1  UNL1        0.0516
     12 C          60.9790   87.0898   10.5485 C.ar    1  UNL1        0.0156
     13 C          60.2114   86.5808    9.3647 C.ar    1  UNL1        0.0127
     14 C          59.5786   87.5481    8.4087 C.ar    1  UNL1        0.0578
     15 CL         58.8109   87.0390    7.2248 Cl      1  UNL1       -0.0822
     16 C          59.7133   89.0246    8.6367 C.ar    1  UNL1        0.0127
     17 C          60.4809   89.5337    9.8206 C.ar    1  UNL1        0.0156
     18 C          66.9501   92.4411   14.7141 C.ar    1  UNL1       -0.0212
     19 C          67.8350   91.6593   15.6391 C.ar    1  UNL1       -0.0042
     20 C          68.8935   92.3620   16.4364 C.ar    1  UNL1       -0.0003
     21 C          69.0670   93.8465   16.3088 C.ar    1  UNL1       -0.0000
     22 C          68.1820   94.6282   15.3839 C.ar    1  UNL1       -0.0003
     23 C          67.1235   93.9255   14.5865 C.ar    1  UNL1       -0.0042
     24 C          66.7289   92.2959   12.8039 C.3     1  UNL1        0.0153
     25 C          66.3313   92.0622   11.3766 C.3     1  UNL1        0.0857
     26 O          68.2419   91.9144    9.6222 O.2     1  UNL1       -0.2749
     27 C          67.1257   92.6825   10.2656 C.2     1  UNL1        0.2258
     28 N          66.8037   94.0709    9.7981 N.am    1  UNL1       -0.2744
     29 C          65.6874   94.8391   10.4415 C.3     1  UNL1        0.1255
     30 C          65.3655   96.2274    9.9739 C.3     1  UNL1        0.1636
     31 O          66.1598   96.8478    8.8629 O.3     1  UNL1       -0.3501
     32 C          67.2761   96.0796    8.2195 C.3     1  UNL1        0.1636
     33 C          67.5980   94.6912    8.6870 C.3     1  UNL1        0.1255
@<TRIPOS>BOND
     1    26    27    2
     2    27    25    1
     3    25    24    1
     4    24     1    1
     5     1    18    1
     6    18    19   ar
     7    19    20   ar
     8    20    21   ar
     9    21    22   ar
    10    22    23   ar
    11     1     2    1
    12     2     3    1
    13     3     4    1
    14     4     5    1
    15     5     6   am
    16     6     7    2
    17     6     8   am
    18     8    11    1
    19    11    12   ar
    20    12    13   ar
    21    13    14   ar
    22    14    15    1
    23    14    16   ar
    24    16    17   ar
    25     5     9    1
    26    27    28   am
    27    28    29    1
    28    29    30    1
    29    30    31    1
    30    31    32    1
    31    32    33    1
    32     9     1    1
    33    33    28    1
    34    23    18   ar
    35    17    11   ar
    36     8    10    1
@<TRIPOS>MOLECULE
*****
 33 36 0 0 0
SMALL
GASTEIGER

@<TRIPOS>ATOM
      1 C          65.6500   91.7439   13.4054 C.3     1  UNL1        0.0378
      2 C          66.0977   92.8734   12.5260 C.3     1  UNL1        0.0075
      3 C          65.5026   93.0412   11.1593 C.3     1  UNL1        0.0219
      4 C          64.4598   92.0793   10.6722 C.3     1  UNL1        0.0950
      5 N          64.0121   90.9497   11.5516 N.am    1  UNL1       -0.2637
      6 C          62.9692   89.9878   11.0645 C.2     1  UNL1        0.3077
      7 O          62.5216   88.8582   11.9440 O.2     1  UNL1       -0.2522
      8 N          62.3742   90.1556    9.6978 N.am    1  UNL1       -0.2681
      9 C          64.6071   90.7820   12.9183 C.3     1  UNL1        0.0989
     10 H          62.6680   90.8970    9.1206 H       1  UNL1        0.1564
     11 C          61.3314   89.1937    9.2107 C.ar    1  UNL1        0.0516
     12 C          60.2139   89.6789    8.3355 C.ar    1  UNL1        0.0156
     13 C          59.1711   88.7171    7.8484 C.ar    1  UNL1        0.0127
     14 C          59.2457   87.2700    8.2364 C.ar    1  UNL1        0.0578
     15 CL         58.2028   86.3081    7.7493 Cl      1  UNL1       -0.0822
     16 C          60.3631   86.7848    9.1116 C.ar    1  UNL1        0.0127
     17 C          61.4060   87.7467    9.5987 C.ar    1  UNL1        0.0156
     18 C          66.6590   92.3915   14.3068 C.ar    1  UNL1       -0.0212
     19 C          67.5063   91.5480   15.2126 C.ar    1  UNL1       -0.0042
     20 C          68.5153   92.1957   16.1139 C.ar    1  UNL1       -0.0003
     21 C          68.6770   93.6869   16.1094 C.ar    1  UNL1       -0.0000
     22 C          67.8297   94.5305   15.2036 C.ar    1  UNL1       -0.0003
     23 C          66.8207   93.8828   14.3023 C.ar    1  UNL1       -0.0042
     24 C          65.5527   90.8392   14.5980 C.3     1  UNL1        0.0153
     25 C          64.6354   89.6528   14.5665 C.3     1  UNL1        0.0857
     26 O          63.2742   90.3925   16.6521 O.2     1  UNL1       -0.2749
     27 C          63.8185   89.3040   15.7752 C.2     1  UNL1        0.2258
     28 N          63.5458   87.8668   16.1069 N.am    1  UNL1       -0.2744
     29 C          64.0901   86.7783   15.2301 C.3     1  UNL1        0.1255
     30 C          63.8174   85.3412   15.5619 C.3     1  UNL1        0.1636
     31 O          63.0004   84.9924   16.7706 O.3     1  UNL1       -0.3501
     32 C          62.4561   86.0809   17.6475 C.3     1  UNL1        0.1636
     33 C          62.7288   87.5181   17.3157 C.3     1  UNL1        0.1255
@<TRIPOS>BOND
     1    26    27    2
     2    27    25    1
     3    25    24    1
     4    24     1    1
     5     1    18    1
     6    18    19   ar
     7    19    20   ar
     8    20    21   ar
     9    21    22   ar
    10    22    23   ar
    11     1     2    1
    12     2     3    1
    13     3     4    1
    14     4     5    1
    15     5     6   am
    16     6     7    2
    17     6     8   am
    18     8    11    1
    19    11    12   ar
    20    12    13   ar
    21    13    14   ar
    22    14    15    1
    23    14    16   ar
    24    16    17   ar
    25     5     9    1
    26    27    28   am
    27    28    29    1
    28    29    30    1
    29    30    31    1
    30    31    32    1
    31    32    33    1
    32     9     1    1
    33    33    28    1
    34    23    18   ar
    35    17    11   ar
    36     8    10    1
@<TRIPOS>MOLECULE
*****
 33 36 0 0 0
SMALL
GASTEIGER

@<TRIPOS>ATOM
      1 C          63.8904   87.9047   14.5782 C.3     1  UNL1        0.0378
      2 C          63.9104   87.6507   16.0563 C.3     1  UNL1        0.0075
      3 C          63.7646   86.2523   16.5790 C.3     1  UNL1        0.0219
      4 C          63.5989   85.1079   15.6235 C.3     1  UNL1        0.0950
      5 N          63.5790   85.3620   14.1453 N.am    1  UNL1       -0.2637
      6 C          63.4133   84.2176   13.1898 C.2     1  UNL1        0.3077
      7 O          63.3934   84.4718   11.7116 O.2     1  UNL1       -0.2522
      8 N          63.2675   82.8192   13.7124 N.am    1  UNL1       -0.2681
      9 C          63.7247   86.7604   13.6226 C.3     1  UNL1        0.0989
     10 H          63.2806   82.6524   14.6826 H       1  UNL1        0.1564
     11 C          63.1018   81.6749   12.7569 C.ar    1  UNL1        0.0516
     12 C          62.6283   80.3424   13.2574 C.ar    1  UNL1        0.0156
     13 C          62.4626   79.1982   12.3019 C.ar    1  UNL1        0.0127
     14 C          62.7704   79.3862   10.8459 C.ar    1  UNL1        0.0578
     15 CL         62.6047   78.2419    9.8903 Cl      1  UNL1       -0.0822
     16 C          63.2439   80.7186   10.3454 C.ar    1  UNL1        0.0127
     17 C          63.4096   81.8630   11.3009 C.ar    1  UNL1        0.0156
     18 C          64.0710   89.3064   15.0810 C.ar    1  UNL1       -0.0212
     19 C          65.0389   90.2285   14.4005 C.ar    1  UNL1       -0.0042
     20 C          65.2194   91.6301   14.9033 C.ar    1  UNL1       -0.0003
     21 C          64.4320   92.1097   16.0866 C.ar    1  UNL1       -0.0000
     22 C          63.4641   91.1876   16.7670 C.ar    1  UNL1       -0.0003
     23 C          63.2836   89.7860   16.2642 C.ar    1  UNL1       -0.0042
     24 C          63.9332   88.6456   13.2746 C.3     1  UNL1        0.0153
     25 C          63.1812   88.1198   12.0881 C.3     1  UNL1        0.0857
     26 O          62.3749   90.5250   11.5271 O.2     1  UNL1       -0.2749
     27 C          62.3552   89.0508   11.2508 C.2     1  UNL1        0.2258
     28 N          61.5096   88.5076   10.1373 N.am    1  UNL1       -0.2744
     29 C          61.4898   87.0334    9.8611 C.3     1  UNL1        0.1255
     30 C          60.6442   86.4902    8.7476 C.3     1  UNL1        0.1636
     31 O          59.8182   87.4213    7.9104 O.3     1  UNL1       -0.3501
     32 C          59.8379   88.8955    8.1866 C.3     1  UNL1        0.1636
     33 C          60.6836   89.4387    9.3001 C.3     1  UNL1        0.1255
@<TRIPOS>BOND
     1    26    27    2
     2    27    25    1
     3    25    24    1
     4    24     1    1
     5     1    18    1
     6    18    19   ar
     7    19    20   ar
     8    20    21   ar
     9    21    22   ar
    10    22    23   ar
    11     1     2    1
    12     2     3    1
    13     3     4    1
    14     4     5    1
    15     5     6   am
    16     6     7    2
    17     6     8   am
    18     8    11    1
    19    11    12   ar
    20    12    13   ar
    21    13    14   ar
    22    14    15    1
    23    14    16   ar
    24    16    17   ar
    25     5     9    1
    26    27    28   am
    27    28    29    1
    28    29    30    1
    29    30    31    1
    30    31    32    1
    31    32    33    1
    32     9     1    1
    33    33    28    1
    34    23    18   ar
    35    17    11   ar
    36     8    10    1
