@<TRIPOS>MOLECULE
*****
 33 35 0 0 0
SMALL
GASTEIGER

@<TRIPOS>ATOM
      1 C          63.2051   90.2400   11.9885 C.3     1  UNL1        0.0755
      2 C          62.5697   90.0863   10.6385 C.3     1  UNL1        0.0194
      3 C          62.1956   88.7232   10.1364 C.3     1  UNL1        0.0280
      4 C          62.4570   87.5138   10.9844 C.3     1  UNL1        0.1357
      5 C          63.0924   87.6676   12.3344 C.3     1  UNL1        0.0280
      6 C          63.4665   89.0306   12.8364 C.3     1  UNL1        0.0194
      7 C          61.8376   86.8614    9.7840 C.ar    1  UNL1        0.0275
      8 C          62.6904   86.0720    8.8358 C.ar    1  UNL1        0.0292
      9 C          62.0712   85.4195    7.6355 C.ar    1  UNL1        0.1400
     10 F          62.9240   84.6301    6.6872 F       1  UNL1       -0.2042
     11 C          60.5988   85.5566    7.3835 C.ar    1  UNL1        0.0319
     12 C          59.7459   86.3461    8.3317 C.ar    1  UNL1        0.0317
     13 C          60.3653   86.9985    9.5320 C.ar    1  UNL1        0.1378
     14 F          59.5124   87.7880   10.4803 F       1  UNL1       -0.2045
     15 S          62.5032   86.0778   11.4155 S.O2    1  UNL1        0.0090
     16 O          61.2231   86.2645   12.1745 O.2     1  UNL1       -0.1684
     17 O          63.5184   85.6497   10.9034 O.2     1  UNL1       -0.1684
     18 C          62.5494   84.6419   11.8466 C.ar    1  UNL1        0.1059
     19 C          62.2962   84.2809   13.2804 C.ar    1  UNL1        0.0192
     20 C          62.3424   82.8449   13.7115 C.ar    1  UNL1        0.0127
     21 C          62.6418   81.7700   12.7091 C.ar    1  UNL1        0.0578
     22 CL         62.6880   80.3341   13.1402 Cl      1  UNL1       -0.0822
     23 C          62.8950   82.1311   11.2753 C.ar    1  UNL1        0.0127
     24 C          62.8488   83.5670   10.8441 C.ar    1  UNL1        0.0192
     25 N          63.5792   91.6031   12.4905 N.3     1  UNL1       -0.1773
     26 H          63.3521   92.2633   11.7469 H       1  UNL1        0.1486
     27 O          65.3874   92.0265   11.4655 O.2     1  UNL1       -0.1497
     28 S          64.9921   91.8877   12.9058 S.O2    1  UNL1        0.1271
     29 O          64.5968   91.7490   14.3460 O.2     1  UNL1       -0.1497
     30 C          66.4052   92.1724   13.3210 C.3     1  UNL1        0.5357
     31 F          66.3650   91.0031   14.2596 F       1  UNL1       -0.1493
     32 F          66.4454   93.3417   12.3823 F       1  UNL1       -0.1493
     33 F          67.8182   92.4571   13.7361 F       1  UNL1       -0.1493
@<TRIPOS>BOND
     1    27    28    2
     2    28    29    2
     3    28    25    1
     4     1    25    1
     5     1     2    1
     6     2     3    1
     7     3     4    1
     8     4     7    1
     9     7     8   ar
    10     8     9   ar
    11     9    10    1
    12     9    11   ar
    13    11    12   ar
    14    12    13   ar
    15    13    14    1
    16     4    15    1
    17    15    16    2
    18    15    17    2
    19    15    18    1
    20    18    19   ar
    21    19    20   ar
    22    20    21   ar
    23    21    22    1
    24    21    23   ar
    25    23    24   ar
    26     4     5    1
    27     5     6    1
    28    28    30    1
    29    30    31    1
    30    30    32    1
    31    30    33    1
    32     6     1    1
    33    13     7   ar
    34    24    18   ar
    35    25    26    1
@<TRIPOS>MOLECULE
*****
 33 35 0 0 0
SMALL
GASTEIGER

@<TRIPOS>ATOM
      1 C          62.4975   90.7535   11.2360 C.3     1  UNL1        0.0755
      2 C          63.1583   91.3892   10.0488 C.3     1  UNL1        0.0194
      3 C          64.4920   92.0583   10.2018 C.3     1  UNL1        0.0280
      4 C          65.1650   92.0918   11.5420 C.3     1  UNL1        0.1357
      5 C          64.5042   91.4561   12.7291 C.3     1  UNL1        0.0280
      6 C          63.1705   90.7870   12.5761 C.3     1  UNL1        0.0194
      7 C          66.1822   92.8279   10.7212 C.ar    1  UNL1        0.0275
      8 C          67.3112   92.0787   10.0778 C.ar    1  UNL1        0.0292
      9 C          68.3284   92.8147    9.2571 C.ar    1  UNL1        0.1400
     10 F          69.4573   92.0656    8.6136 F       1  UNL1       -0.2042
     11 C          68.2165   94.3000    9.0799 C.ar    1  UNL1        0.0319
     12 C          67.0875   95.0493    9.7233 C.ar    1  UNL1        0.0317
     13 C          66.0703   94.3132   10.5440 C.ar    1  UNL1        0.1378
     14 F          64.9414   95.0624   11.1875 F       1  UNL1       -0.2045
     15 S          66.1913   92.3809   12.5971 S.O2    1  UNL1        0.0090
     16 O          65.2589   93.3689   13.2331 O.2     1  UNL1       -0.1684
     17 O          67.1251   91.6611   12.3040 O.2     1  UNL1       -0.1684
     18 C          67.2174   92.6701   13.6522 C.ar    1  UNL1        0.1059
     19 C          68.5672   92.0192   13.5840 C.ar    1  UNL1        0.0192
     20 C          69.5934   92.3083   14.6391 C.ar    1  UNL1        0.0127
     21 C          69.2699   93.2483   15.7624 C.ar    1  UNL1        0.0578
     22 CL         70.2961   93.5374   16.8175 Cl      1  UNL1       -0.0822
     23 C          67.9201   93.8992   15.8306 C.ar    1  UNL1        0.0127
     24 C          66.8940   93.6100   14.7755 C.ar    1  UNL1        0.0192
     25 N          61.1638   90.0844   11.0829 N.3     1  UNL1       -0.1773
     26 H          60.8169   89.9005   12.0244 H       1  UNL1        0.1486
     27 O          61.6677   88.0617   11.4762 O.2     1  UNL1       -0.1497
     28 S          61.0537   88.7966   10.3217 S.O2    1  UNL1        0.1271
     29 O          60.4397   89.5315    9.1673 O.2     1  UNL1       -0.1497
     30 C          60.9437   87.5087    9.5605 C.3     1  UNL1        0.5357
     31 F          59.4717   87.4658    9.8458 F       1  UNL1       -0.1493
     32 F          62.4156   87.5516    9.2753 F       1  UNL1       -0.1493
     33 F          60.8336   86.2209    8.7994 F       1  UNL1       -0.1493
@<TRIPOS>BOND
     1    27    28    2
     2    28    29    2
     3    28    25    1
     4     1    25    1
     5     1     2    1
     6     2     3    1
     7     3     4    1
     8     4     7    1
     9     7     8   ar
    10     8     9   ar
    11     9    10    1
    12     9    11   ar
    13    11    12   ar
    14    12    13   ar
    15    13    14    1
    16     4    15    1
    17    15    16    2
    18    15    17    2
    19    15    18    1
    20    18    19   ar
    21    19    20   ar
    22    20    21   ar
    23    21    22    1
    24    21    23   ar
    25    23    24   ar
    26     4     5    1
    27     5     6    1
    28    28    30    1
    29    30    31    1
    30    30    32    1
    31    30    33    1
    32     6     1    1
    33    13     7   ar
    34    24    18   ar
    35    25    26    1
@<TRIPOS>MOLECULE
*****
 33 35 0 0 0
SMALL
GASTEIGER

@<TRIPOS>ATOM
      1 C          62.5607   90.2803   11.1820 C.3     1  UNL1        0.0755
      2 C          63.0635   91.1720   10.0857 C.3     1  UNL1        0.0194
      3 C          64.2958   92.0003   10.2984 C.3     1  UNL1        0.0280
      4 C          65.0253   91.9369   11.6076 C.3     1  UNL1        0.1357
      5 C          64.5225   91.0452   12.7039 C.3     1  UNL1        0.0280
      6 C          63.2901   90.2169   12.4911 C.3     1  UNL1        0.0194
      7 C          65.8852   92.9260   10.8778 C.ar    1  UNL1        0.0275
      8 C          65.6948   94.3964   11.1046 C.ar    1  UNL1        0.0292
      9 C          66.5546   95.3854   10.3750 C.ar    1  UNL1        0.1400
     10 F          66.3642   96.8558   10.6018 F       1  UNL1       -0.2042
     11 C          67.6050   94.9039    9.4185 C.ar    1  UNL1        0.0319
     12 C          67.7955   93.4335    9.1916 C.ar    1  UNL1        0.0317
     13 C          66.9356   92.4444    9.9213 C.ar    1  UNL1        0.1378
     14 F          67.1260   90.9740    9.6945 F       1  UNL1       -0.2045
     15 S          66.0534   92.2170   12.6633 S.O2    1  UNL1        0.0090
     16 O          64.9706   92.6681   13.5981 O.2     1  UNL1       -0.1684
     17 O          67.1060   91.9174   12.1355 O.2     1  UNL1       -0.1684
     18 C          67.0815   92.4972   13.7190 C.ar    1  UNL1        0.1059
     19 C          68.4641   91.9300   13.5887 C.ar    1  UNL1        0.0192
     20 C          69.4921   92.2101   14.6444 C.ar    1  UNL1        0.0127
     21 C          69.1377   93.0573   15.8304 C.ar    1  UNL1        0.0578
     22 CL         70.1658   93.3374   16.8862 Cl      1  UNL1       -0.0822
     23 C          67.7551   93.6245   15.9608 C.ar    1  UNL1        0.0127
     24 C          66.7271   93.3444   14.9050 C.ar    1  UNL1        0.0192
     25 N          61.3284   89.4519   10.9692 N.3     1  UNL1       -0.1773
     26 H          61.0477   89.1010   11.8849 H       1  UNL1        0.1486
     27 O          62.1467   87.4975   11.0705 O.2     1  UNL1       -0.1497
     28 S          61.3692   88.2701   10.0465 S.O2    1  UNL1        0.1271
     29 O          60.5917   89.0426    9.0225 O.2     1  UNL1       -0.1497
     30 C          61.4101   87.0881    9.1237 C.3     1  UNL1        0.5357
     31 F          59.9142   86.9931    9.1791 F       1  UNL1       -0.1493
     32 F          62.9060   87.1831    9.0684 F       1  UNL1       -0.1493
     33 F          61.4510   85.9062    8.2011 F       1  UNL1       -0.1493
@<TRIPOS>BOND
     1    27    28    2
     2    28    29    2
     3    28    25    1
     4     1    25    1
     5     1     2    1
     6     2     3    1
     7     3     4    1
     8     4     7    1
     9     7     8   ar
    10     8     9   ar
    11     9    10    1
    12     9    11   ar
    13    11    12   ar
    14    12    13   ar
    15    13    14    1
    16     4    15    1
    17    15    16    2
    18    15    17    2
    19    15    18    1
    20    18    19   ar
    21    19    20   ar
    22    20    21   ar
    23    21    22    1
    24    21    23   ar
    25    23    24   ar
    26     4     5    1
    27     5     6    1
    28    28    30    1
    29    30    31    1
    30    30    32    1
    31    30    33    1
    32     6     1    1
    33    13     7   ar
    34    24    18   ar
    35    25    26    1
@<TRIPOS>MOLECULE
*****
 33 35 0 0 0
SMALL
GASTEIGER

@<TRIPOS>ATOM
      1 C          65.9442   93.3679   12.3322 C.3     1  UNL1        0.0755
      2 C          66.0852   92.5678   13.5931 C.3     1  UNL1        0.0194
      3 C          65.2340   91.3516   13.8087 C.3     1  UNL1        0.0280
      4 C          64.2419   90.9356   12.7635 C.3     1  UNL1        0.1357
      5 C          64.1010   91.7357   11.5026 C.3     1  UNL1        0.0280
      6 C          64.9521   92.9518   11.2869 C.3     1  UNL1        0.0194
      7 C          64.0104   89.8614   13.7846 C.ar    1  UNL1        0.0275
      8 C          64.2287   88.4224   13.4221 C.ar    1  UNL1        0.0292
      9 C          63.9972   87.3482   14.4431 C.ar    1  UNL1        0.1400
     10 F          64.2156   85.9092   14.0806 F       1  UNL1       -0.2042
     11 C          63.5473   87.7131   15.8267 C.ar    1  UNL1        0.0319
     12 C          63.3289   89.1522   16.1893 C.ar    1  UNL1        0.0317
     13 C          63.5604   90.2263   15.1682 C.ar    1  UNL1        0.1378
     14 F          63.3420   91.6653   15.5307 F       1  UNL1       -0.2045
     15 S          63.1693   90.1465   12.0729 S.O2    1  UNL1        0.0090
     16 O          63.9276   90.2454   10.7824 O.2     1  UNL1       -0.1684
     17 O          62.3632   89.9141   12.9517 O.2     1  UNL1       -0.1684
     18 C          62.0968   89.3574   11.3822 C.ar    1  UNL1        0.1059
     19 C          60.6807   89.4280   11.8718 C.ar    1  UNL1        0.0192
     20 C          59.6082   88.6390   11.1811 C.ar    1  UNL1        0.0127
     21 C          59.9517   87.7793   10.0009 C.ar    1  UNL1        0.0578
     22 CL         58.8792   86.9902    9.3102 Cl      1  UNL1       -0.0822
     23 C          61.3678   87.7087    9.5113 C.ar    1  UNL1        0.0127
     24 C          62.4403   88.4977   10.2020 C.ar    1  UNL1        0.0192
     25 N          66.7954   94.5840   12.1165 N.3     1  UNL1       -0.1773
     26 H          66.5388   95.2552   12.8404 H       1  UNL1        0.1486
     27 O          65.7828   96.3059   11.4027 O.2     1  UNL1       -0.1497
     28 S          66.7401   95.3158   10.8083 S.O2    1  UNL1        0.1271
     29 O          67.6973   94.3257   10.2140 O.2     1  UNL1       -0.1497
     30 C          66.6847   96.0477    9.5001 C.3     1  UNL1        0.5357
     31 F          65.3641   96.6431    9.8891 F       1  UNL1       -0.1493
     32 F          68.0053   95.4522    9.1111 F       1  UNL1       -0.1493
     33 F          66.6293   96.7795    8.1920 F       1  UNL1       -0.1493
@<TRIPOS>BOND
     1    27    28    2
     2    28    29    2
     3    28    25    1
     4     1    25    1
     5     1     2    1
     6     2     3    1
     7     3     4    1
     8     4     7    1
     9     7     8   ar
    10     8     9   ar
    11     9    10    1
    12     9    11   ar
    13    11    12   ar
    14    12    13   ar
    15    13    14    1
    16     4    15    1
    17    15    16    2
    18    15    17    2
    19    15    18    1
    20    18    19   ar
    21    19    20   ar
    22    20    21   ar
    23    21    22    1
    24    21    23   ar
    25    23    24   ar
    26     4     5    1
    27     5     6    1
    28    28    30    1
    29    30    31    1
    30    30    32    1
    31    30    33    1
    32     6     1    1
    33    13     7   ar
    34    24    18   ar
    35    25    26    1
@<TRIPOS>MOLECULE
*****
 33 35 0 0 0
SMALL
GASTEIGER

@<TRIPOS>ATOM
      1 C          63.0627   84.9305   13.5078 C.3     1  UNL1        0.0755
      2 C          61.8978   85.1873   12.5984 C.3     1  UNL1        0.0194
      3 C          61.7171   86.5394   11.9745 C.3     1  UNL1        0.0280
      4 C          62.7013   87.6347   12.2600 C.3     1  UNL1        0.1357
      5 C          63.8662   87.3779   13.1694 C.3     1  UNL1        0.0280
      6 C          64.0469   86.0258   13.7933 C.3     1  UNL1        0.0194
      7 C          61.7653   88.3593   11.3387 C.ar    1  UNL1        0.0275
      8 C          60.8463   89.4137   11.8805 C.ar    1  UNL1        0.0292
      9 C          59.9103   90.1383   10.9592 C.ar    1  UNL1        0.1400
     10 F          58.9913   91.1927   11.5010 F       1  UNL1       -0.2042
     11 C          59.8933   89.8084    9.4960 C.ar    1  UNL1        0.0319
     12 C          60.8123   88.7540    8.9541 C.ar    1  UNL1        0.0317
     13 C          61.7483   88.0294    9.8755 C.ar    1  UNL1        0.1378
     14 F          62.6673   86.9750    9.3337 F       1  UNL1       -0.2045
     15 S          63.3605   88.9817   12.2256 S.O2    1  UNL1        0.0090
     16 O          63.4017   88.9998   13.7248 O.2     1  UNL1       -0.1684
     17 O          63.4573   89.2314   11.0404 O.2     1  UNL1       -0.1684
     18 C          64.0197   90.3286   12.1911 C.ar    1  UNL1        0.1059
     19 C          63.9307   91.1757   10.9564 C.ar    1  UNL1        0.0192
     20 C          64.5899   92.5227   10.9220 C.ar    1  UNL1        0.0127
     21 C          65.3380   93.0225   12.1221 C.ar    1  UNL1        0.0578
     22 CL         65.9972   94.3694   12.0877 Cl      1  UNL1       -0.0822
     23 C          65.4271   92.1753   13.3569 C.ar    1  UNL1        0.0127
     24 C          64.7679   90.8284   13.3913 C.ar    1  UNL1        0.0192
     25 N          63.2434   83.5784   14.1316 N.3     1  UNL1       -0.1773
     26 H          64.1953   83.5474   14.4967 H       1  UNL1        0.1486
     27 O          64.2493   82.7121   12.4771 O.2     1  UNL1       -0.1497
     28 S          63.0557   82.3403   13.3060 S.O2    1  UNL1        0.1271
     29 O          61.8621   81.9685   14.1348 O.2     1  UNL1       -0.1497
     30 C          62.8680   81.1021   12.4802 C.3     1  UNL1        0.5357
     31 F          62.6872   81.9471   11.2542 F       1  UNL1       -0.1493
     32 F          63.0489   80.2571   13.7062 F       1  UNL1       -0.1493
     33 F          62.6804   79.8640   11.6545 F       1  UNL1       -0.1493
@<TRIPOS>BOND
     1    27    28    2
     2    28    29    2
     3    28    25    1
     4     1    25    1
     5     1     2    1
     6     2     3    1
     7     3     4    1
     8     4     7    1
     9     7     8   ar
    10     8     9   ar
    11     9    10    1
    12     9    11   ar
    13    11    12   ar
    14    12    13   ar
    15    13    14    1
    16     4    15    1
    17    15    16    2
    18    15    17    2
    19    15    18    1
    20    18    19   ar
    21    19    20   ar
    22    20    21   ar
    23    21    22    1
    24    21    23   ar
    25    23    24   ar
    26     4     5    1
    27     5     6    1
    28    28    30    1
    29    30    31    1
    30    30    32    1
    31    30    33    1
    32     6     1    1
    33    13     7   ar
    34    24    18   ar
    35    25    26    1
@<TRIPOS>MOLECULE
*****
 33 35 0 0 0
SMALL
GASTEIGER

@<TRIPOS>ATOM
      1 C          60.1220   93.7360    0.2561 C.3     1  UNL1        0.0755
      2 C          59.3554   95.0032    0.0183 C.3     1  UNL1        0.0194
      3 C          58.1758   95.0035   -0.9083 C.3     1  UNL1        0.0280
      4 C          57.7628   93.7367   -1.5971 C.3     1  UNL1        0.1357
      5 C          58.5294   92.4695   -1.3593 C.3     1  UNL1        0.0280
      6 C          59.7090   92.4692   -0.4327 C.3     1  UNL1        0.0194
      7 C          56.7280   94.6774   -2.1395 C.ar    1  UNL1        0.0275
      8 C          55.3366   94.6658   -1.5792 C.ar    1  UNL1        0.0292
      9 C          54.3018   95.6065   -2.1216 C.ar    1  UNL1        0.1400
     10 F          52.9104   95.5949   -1.5613 F       1  UNL1       -0.2042
     11 C          54.6583   96.5587   -3.2244 C.ar    1  UNL1        0.0319
     12 C          56.0497   96.5704   -3.7847 C.ar    1  UNL1        0.0317
     13 C          57.0845   95.6296   -3.2423 C.ar    1  UNL1        0.1378
     14 F          58.4758   95.6412   -3.8026 F       1  UNL1       -0.2045
     15 S          56.9904   92.7965   -2.4743 S.O2    1  UNL1        0.0090
     16 O          56.2733   92.2621   -1.2701 O.2     1  UNL1       -0.1684
     17 O          57.4025   93.0322   -3.5927 O.2     1  UNL1       -0.1684
     18 C          56.2179   91.8563   -3.3514 C.ar    1  UNL1        0.1059
     19 C          56.0304   92.1710   -4.8061 C.ar    1  UNL1        0.0192
     20 C          55.2580   91.2309   -5.6832 C.ar    1  UNL1        0.0127
     21 C          54.6731   89.9761   -5.1059 C.ar    1  UNL1        0.0578
     22 CL         53.9006   89.0359   -5.9830 Cl      1  UNL1       -0.0822
     23 C          54.8606   89.6614   -3.6512 C.ar    1  UNL1        0.0127
     24 C          55.6330   90.6016   -2.7741 C.ar    1  UNL1        0.0192
     25 N          61.3016   93.7356    1.1826 N.3     1  UNL1       -0.1773
     26 H          62.1129   93.4658    0.6264 H       1  UNL1        0.1486
     27 O          62.4953   92.1229    1.8710 O.2     1  UNL1       -0.1497
     28 S          61.2994   92.8582    2.3992 S.O2    1  UNL1        0.1271
     29 O          60.1035   93.5935    2.9274 O.2     1  UNL1       -0.1497
     30 C          61.2973   91.9807    3.6158 C.3     1  UNL1        0.5357
     31 F          62.6740   91.4966    3.2691 F       1  UNL1       -0.1493
     32 F          59.9206   92.4649    3.9626 F       1  UNL1       -0.1493
     33 F          61.2951   91.1033    4.8324 F       1  UNL1       -0.1493
@<TRIPOS>BOND
     1    27    28    2
     2    28    29    2
     3    28    25    1
     4     1    25    1
     5     1     2    1
     6     2     3    1
     7     3     4    1
     8     4     7    1
     9     7     8   ar
    10     8     9   ar
    11     9    10    1
    12     9    11   ar
    13    11    12   ar
    14    12    13   ar
    15    13    14    1
    16     4    15    1
    17    15    16    2
    18    15    17    2
    19    15    18    1
    20    18    19   ar
    21    19    20   ar
    22    20    21   ar
    23    21    22    1
    24    21    23   ar
    25    23    24   ar
    26     4     5    1
    27     5     6    1
    28    28    30    1
    29    30    31    1
    30    30    32    1
    31    30    33    1
    32     6     1    1
    33    13     7   ar
    34    24    18   ar
    35    25    26    1
