@<TRIPOS>MOLECULE
*****
 29 31 0 0 0
SMALL
GASTEIGER

@<TRIPOS>ATOM
      1 C          63.6172   87.3390   13.4238 C.ar    1  UNL1        0.0177
      2 C          62.7974   86.6281   12.3882 C.ar    1  UNL1        0.0013
      3 C          62.5129   85.1624   12.5332 C.ar    1  UNL1       -0.0016
      4 C          63.0483   84.4077   13.7138 C.ar    1  UNL1        0.0070
      5 C          63.8682   85.1187   14.7494 C.ar    1  UNL1       -0.0016
      6 C          64.1526   86.5843   14.6044 C.ar    1  UNL1        0.0013
      7 C          65.0087   90.9804   14.1678 C.ar    1  UNL1        0.1341
      8 C          64.4705   91.7359   12.9890 C.ar    1  UNL1        0.0345
      9 C          63.6477   91.0257   11.9552 C.ar    1  UNL1        0.0044
     10 C          63.3633   89.5601   12.1001 C.ar    1  UNL1        0.0192
     11 C          63.9016   88.8047   13.2788 C.ar    1  UNL1        0.0827
     12 N          64.7243   89.5148   14.3127 N.ar    1  UNL1       -0.2305
     13 C          68.0834   92.7516   15.9453 C.3     1  UNL1        0.0950
     14 C          67.2606   92.0415   14.9114 C.2     1  UNL1        0.2277
     15 O          67.8672   91.6822   13.5873 O.2     1  UNL1       -0.2747
     16 N          65.8315   91.6906   15.2016 N.am    1  UNL1       -0.2693
     17 H          65.4334   91.9264   16.0706 H       1  UNL1        0.1563
     18 C          62.7640   82.9421   13.8588 C.3     1  UNL1        0.1410
     19 O          62.1768   83.1904   15.2165 O.3     1  UNL1       -0.3771
     20 H          62.2237   84.1374   15.4208 H       1  UNL1        0.2112
     21 C          63.3511   82.6938   12.5010 C.ar    1  UNL1        0.0825
     22 C          64.7070   83.1326   12.0330 C.ar    1  UNL1        0.1157
     23 N          64.8793   82.6731   10.6155 N.ar    1  UNL1       -0.2228
     24 C          63.6298   81.9504   10.2074 C.ar    1  UNL1        0.1749
     25 N          62.6853   81.9632   11.3726 N.ar    1  UNL1       -0.3361
     26 H          61.7863   81.5625   11.3932 H       1  UNL1        0.1673
     27 C          62.4796   81.4765   14.0038 C.3     1  UNL1        0.0340
     28 C          63.6109   80.4918   14.0287 C.3     1  UNL1        0.0031
     29 C          61.0638   80.9955   14.1238 C.3     1  UNL1        0.0031
@<TRIPOS>BOND
     1    13    14    1
     2    14    15    2
     3    14    16   am
     4    16     7    1
     5     7     8   ar
     6     8     9   ar
     7     9    10   ar
     8    10    11   ar
     9    11     1    1
    10     1     2   ar
    11     2     3   ar
    12     3     4   ar
    13     4    18    1
    14    18    19    1
    15    18    21    1
    16    21    22   ar
    17    22    23   ar
    18    23    24   ar
    19    24    25   ar
    20    18    27    1
    21    27    28    1
    22    27    29    1
    23     4     5   ar
    24     5     6   ar
    25    11    12   ar
    26    12     7   ar
    27     6     1   ar
    28    25    21   ar
    29    16    17    1
    30    19    20    1
    31    25    26    1
@<TRIPOS>MOLECULE
*****
 29 31 0 0 0
SMALL
GASTEIGER

@<TRIPOS>ATOM
      1 C          61.9245   88.9118   10.4268 C.ar    1  UNL1        0.0177
      2 C          62.1598   90.3927   10.4641 C.ar    1  UNL1        0.0013
      3 C          63.0166   90.9892   11.5412 C.ar    1  UNL1       -0.0016
      4 C          63.6381   90.1046   12.5811 C.ar    1  UNL1        0.0070
      5 C          63.4028   88.6236   12.5438 C.ar    1  UNL1       -0.0016
      6 C          62.5460   88.0272   11.4667 C.ar    1  UNL1        0.0013
      7 C          59.2704   88.5902    7.4938 C.ar    1  UNL1        0.1341
      8 C          59.3541   87.1226    7.1955 C.ar    1  UNL1        0.0345
      9 C          60.2946   86.2513    7.9742 C.ar    1  UNL1        0.0044
     10 C          61.1514   86.8477    9.0513 C.ar    1  UNL1        0.0192
     11 C          61.0677   88.3153    9.3497 C.ar    1  UNL1        0.0827
     12 N          60.1272   89.1866    8.5709 N.ar    1  UNL1       -0.2305
     13 C          57.9278   91.3025    4.9266 C.3     1  UNL1        0.0950
     14 C          58.8682   90.4313    5.7054 C.2     1  UNL1        0.2277
     15 O          60.3471   90.5299    5.4744 O.2     1  UNL1       -0.2747
     16 N          58.3299   89.4614    6.7151 N.am    1  UNL1       -0.2693
     17 H          57.3593   89.3967    6.8667 H       1  UNL1        0.1563
     18 C          64.4949   90.7010   13.6582 C.3     1  UNL1        0.1410
     19 O          65.0537   91.6819   12.6705 O.3     1  UNL1       -0.3771
     20 H          64.6518   91.5297   11.8009 H       1  UNL1        0.2112
     21 C          63.9360   89.7201   14.6458 C.ar    1  UNL1        0.0825
     22 C          64.4762   88.3498   14.9296 C.ar    1  UNL1        0.1157
     23 N          63.6128   87.7201   15.9823 N.ar    1  UNL1       -0.2228
     24 C          62.5391   88.7012   16.3492 C.ar    1  UNL1        0.1749
     25 N          62.7388   89.9373   15.5232 N.ar    1  UNL1       -0.3361
     26 H          62.1820   90.7487   15.5519 H       1  UNL1        0.1673
     27 C          65.3517   91.2974   14.7353 C.3     1  UNL1        0.0340
     28 C          64.7150   91.9008   15.9521 C.3     1  UNL1        0.0031
     29 C          66.8452   91.2905   14.5956 C.3     1  UNL1        0.0031
@<TRIPOS>BOND
     1    13    14    1
     2    14    15    2
     3    14    16   am
     4    16     7    1
     5     7     8   ar
     6     8     9   ar
     7     9    10   ar
     8    10    11   ar
     9    11     1    1
    10     1     2   ar
    11     2     3   ar
    12     3     4   ar
    13     4    18    1
    14    18    19    1
    15    18    21    1
    16    21    22   ar
    17    22    23   ar
    18    23    24   ar
    19    24    25   ar
    20    18    27    1
    21    27    28    1
    22    27    29    1
    23     4     5   ar
    24     5     6   ar
    25    11    12   ar
    26    12     7   ar
    27     6     1   ar
    28    25    21   ar
    29    16    17    1
    30    19    20    1
    31    25    26    1
@<TRIPOS>MOLECULE
*****
 29 31 0 0 0
SMALL
GASTEIGER

@<TRIPOS>ATOM
      1 C          62.5174   89.5614   10.5382 C.ar    1  UNL1        0.0177
      2 C          63.0148   90.9063   10.0978 C.ar    1  UNL1        0.0013
      3 C          63.8976   91.7129   11.0034 C.ar    1  UNL1       -0.0016
      4 C          64.2829   91.1747   12.3494 C.ar    1  UNL1        0.0070
      5 C          63.7855   89.8298   12.7898 C.ar    1  UNL1       -0.0016
      6 C          62.9028   89.0232   11.8842 C.ar    1  UNL1        0.0013
      7 C          59.6778   88.6255    7.9284 C.ar    1  UNL1        0.1341
      8 C          59.8690   87.1416    7.8215 C.ar    1  UNL1        0.0345
      9 C          60.9430   86.4643    8.6201 C.ar    1  UNL1        0.0044
     10 C          61.8258   87.2709    9.5257 C.ar    1  UNL1        0.0192
     11 C          61.6346   88.7548    9.6326 C.ar    1  UNL1        0.0827
     12 N          60.5606   89.4321    8.8340 N.ar    1  UNL1       -0.2305
     13 C          57.8979   90.8552    5.1698 C.3     1  UNL1        0.0950
     14 C          58.9718   90.1779    5.9684 C.2     1  UNL1        0.2277
     15 O          60.4139   90.3757    5.6057 O.2     1  UNL1       -0.2747
     16 N          58.6039   89.3028    7.1298 N.am    1  UNL1       -0.2693
     17 H          57.6574   89.1730    7.3679 H       1  UNL1        0.1563
     18 C          65.1657   91.9813   13.2550 C.3     1  UNL1        0.1410
     19 O          64.3441   91.5551   14.4354 O.3     1  UNL1       -0.3771
     20 H          63.6288   90.9715   14.1377 H       1  UNL1        0.2112
     21 C          65.9873   92.4074   12.0746 C.ar    1  UNL1        0.0825
     22 C          67.3354   91.8683   11.6979 C.ar    1  UNL1        0.1157
     23 N          67.7863   92.5753   10.4540 N.ar    1  UNL1       -0.2228
     24 C          66.7168   93.5512   10.0620 C.ar    1  UNL1        0.1749
     25 N          65.6049   93.4475   11.0635 N.ar    1  UNL1       -0.3361
     26 H          64.7707   93.9703   11.0582 H       1  UNL1        0.1673
     27 C          66.0485   92.7878   14.1606 C.3     1  UNL1        0.0340
     28 C          66.5214   92.2063   15.4598 C.3     1  UNL1        0.0031
     29 C          66.4583   94.1761   13.7669 C.3     1  UNL1        0.0031
@<TRIPOS>BOND
     1    13    14    1
     2    14    15    2
     3    14    16   am
     4    16     7    1
     5     7     8   ar
     6     8     9   ar
     7     9    10   ar
     8    10    11   ar
     9    11     1    1
    10     1     2   ar
    11     2     3   ar
    12     3     4   ar
    13     4    18    1
    14    18    19    1
    15    18    21    1
    16    21    22   ar
    17    22    23   ar
    18    23    24   ar
    19    24    25   ar
    20    18    27    1
    21    27    28    1
    22    27    29    1
    23     4     5   ar
    24     5     6   ar
    25    11    12   ar
    26    12     7   ar
    27     6     1   ar
    28    25    21   ar
    29    16    17    1
    30    19    20    1
    31    25    26    1
@<TRIPOS>MOLECULE
*****
 29 31 0 0 0
SMALL
GASTEIGER

@<TRIPOS>ATOM
      1 C          63.3675   89.1015   12.3348 C.ar    1  UNL1        0.0177
      2 C          63.5311   90.4397   11.6772 C.ar    1  UNL1        0.0013
      3 C          64.3715   91.4978   12.3285 C.ar    1  UNL1       -0.0016
      4 C          65.0483   91.2176   13.6375 C.ar    1  UNL1        0.0070
      5 C          64.8847   89.8794   14.2951 C.ar    1  UNL1       -0.0016
      6 C          64.0443   88.8214   13.6438 C.ar    1  UNL1        0.0013
      7 C          61.9568   85.5364   11.3103 C.ar    1  UNL1        0.1341
      8 C          60.8462   85.9273   10.3809 C.ar    1  UNL1        0.0345
      9 C          60.5760   87.3764   10.1029 C.ar    1  UNL1        0.0044
     10 C          61.4164   88.4344   10.7542 C.ar    1  UNL1        0.0192
     11 C          62.5270   88.0434   11.6835 C.ar    1  UNL1        0.0827
     12 N          62.7972   86.5944   11.9615 N.ar    1  UNL1       -0.2305
     13 C          63.4218   81.8633   10.9751 C.3     1  UNL1        0.0950
     14 C          63.1516   83.3123   10.6970 C.2     1  UNL1        0.2277
     15 O          63.8060   83.9863    9.5276 O.2     1  UNL1       -0.2747
     16 N          62.2270   84.0873   11.5883 N.am    1  UNL1       -0.2693
     17 H          61.7975   83.6450   12.3558 H       1  UNL1        0.1563
     18 C          65.8888   92.2756   14.2888 C.3     1  UNL1        0.1410
     19 O          64.9065   92.3598   15.4194 O.3     1  UNL1       -0.3771
     20 H          64.1824   91.7329   15.2659 H       1  UNL1        0.2112
     21 C          66.8710   92.1914   13.1583 C.ar    1  UNL1        0.0825
     22 C          66.6667   92.7245   11.7712 C.ar    1  UNL1        0.1157
     23 N          67.8995   92.4218   10.9720 N.ar    1  UNL1       -0.2228
     24 C          68.8657   91.7016   11.8652 C.ar    1  UNL1        0.1749
     25 N          68.2301   91.5591   13.2164 N.ar    1  UNL1       -0.3361
     26 H          68.6340   91.1267   14.0032 H       1  UNL1        0.1673
     27 C          66.7292   93.3336   14.9402 C.3     1  UNL1        0.0340
     28 C          66.9458   94.6486   14.2519 C.3     1  UNL1        0.0031
     29 C          67.3531   93.0766   16.2799 C.3     1  UNL1        0.0031
@<TRIPOS>BOND
     1    13    14    1
     2    14    15    2
     3    14    16   am
     4    16     7    1
     5     7     8   ar
     6     8     9   ar
     7     9    10   ar
     8    10    11   ar
     9    11     1    1
    10     1     2   ar
    11     2     3   ar
    12     3     4   ar
    13     4    18    1
    14    18    19    1
    15    18    21    1
    16    21    22   ar
    17    22    23   ar
    18    23    24   ar
    19    24    25   ar
    20    18    27    1
    21    27    28    1
    22    27    29    1
    23     4     5   ar
    24     5     6   ar
    25    11    12   ar
    26    12     7   ar
    27     6     1   ar
    28    25    21   ar
    29    16    17    1
    30    19    20    1
    31    25    26    1
@<TRIPOS>MOLECULE
*****
 29 31 0 0 0
SMALL
GASTEIGER

@<TRIPOS>ATOM
      1 C          62.9377   89.4908   11.7623 C.ar    1  UNL1        0.0177
      2 C          63.2320   90.8824   11.2863 C.ar    1  UNL1        0.0013
      3 C          64.1604   91.7624   12.0698 C.ar    1  UNL1       -0.0016
      4 C          64.7945   91.2507   13.3291 C.ar    1  UNL1        0.0070
      5 C          64.5002   89.8589   13.8051 C.ar    1  UNL1       -0.0016
      6 C          63.5718   88.9790   13.0216 C.ar    1  UNL1        0.0013
      7 C          61.6332   86.7683    9.1860 C.ar    1  UNL1        0.1341
      8 C          60.1527   86.8508    9.4120 C.ar    1  UNL1        0.0345
      9 C          59.6004   87.8132   10.4213 C.ar    1  UNL1        0.0044
     10 C          60.5288   88.6932   11.2048 C.ar    1  UNL1        0.0192
     11 C          62.0093   88.6107   10.9788 C.ar    1  UNL1        0.0827
     12 N          62.5616   87.6483    9.9695 N.ar    1  UNL1       -0.2305
     13 C          61.8431   84.2733    6.1070 C.3     1  UNL1        0.0950
     14 C          61.2908   85.2357    7.1163 C.2     1  UNL1        0.2277
     15 O          59.8439   85.6279    7.0653 O.2     1  UNL1       -0.2747
     16 N          62.1855   85.8059    8.1767 N.am    1  UNL1       -0.2693
     17 H          63.1351   85.5485    8.2102 H       1  UNL1        0.1563
     18 C          65.7229   92.1306   14.1126 C.3     1  UNL1        0.1410
     19 O          64.7958   92.0607   15.2897 O.3     1  UNL1       -0.3771
     20 H          64.0300   91.5092   15.0657 H       1  UNL1        0.2112
     21 C          66.6500   92.2005   12.9355 C.ar    1  UNL1        0.0825
     22 C          68.0332   91.6244   12.8671 C.ar    1  UNL1        0.1157
     23 N          68.5948   91.9266   11.5094 N.ar    1  UNL1       -0.2228
     24 C          67.5585   92.6896   10.7386 C.ar    1  UNL1        0.1749
     25 N          66.3566   92.8589   11.6199 N.ar    1  UNL1       -0.3361
     26 H          65.5217   93.3210   11.3775 H       1  UNL1        0.1673
     27 C          66.6513   93.0105   14.8960 C.3     1  UNL1        0.0340
     28 C          67.2200   92.5298   16.1981 C.3     1  UNL1        0.0031
     29 C          67.0110   94.3713   14.3773 C.3     1  UNL1        0.0031
@<TRIPOS>BOND
     1    13    14    1
     2    14    15    2
     3    14    16   am
     4    16     7    1
     5     7     8   ar
     6     8     9   ar
     7     9    10   ar
     8    10    11   ar
     9    11     1    1
    10     1     2   ar
    11     2     3   ar
    12     3     4   ar
    13     4    18    1
    14    18    19    1
    15    18    21    1
    16    21    22   ar
    17    22    23   ar
    18    23    24   ar
    19    24    25   ar
    20    18    27    1
    21    27    28    1
    22    27    29    1
    23     4     5   ar
    24     5     6   ar
    25    11    12   ar
    26    12     7   ar
    27     6     1   ar
    28    25    21   ar
    29    16    17    1
    30    19    20    1
    31    25    26    1
@<TRIPOS>MOLECULE
*****
 29 31 0 0 0
SMALL
GASTEIGER

@<TRIPOS>ATOM
      1 C          63.2553   90.1975   11.2114 C.ar    1  UNL1        0.0177
      2 C          63.3948   91.0114    9.9592 C.ar    1  UNL1        0.0013
      3 C          64.1881   92.2844    9.9764 C.ar    1  UNL1       -0.0016
      4 C          64.8419   92.7435   11.2460 C.ar    1  UNL1        0.0070
      5 C          64.7024   91.9295   12.4983 C.ar    1  UNL1       -0.0016
      6 C          63.9091   90.6566   12.4810 C.ar    1  UNL1        0.0013
      7 C          62.1608   86.4510   11.9297 C.ar    1  UNL1        0.1341
      8 C          60.8756   86.3786   11.1596 C.ar    1  UNL1        0.0345
      9 C          60.3836   87.5791   10.4068 C.ar    1  UNL1        0.0044
     10 C          61.1768   88.8521   10.4241 C.ar    1  UNL1        0.0192
     11 C          62.4620   88.9245   11.1941 C.ar    1  UNL1        0.0827
     12 N          62.9540   87.7240   11.9469 N.ar    1  UNL1       -0.2305
     13 C          63.7321   82.8873   12.6916 C.3     1  UNL1        0.0950
     14 C          63.2402   84.0878   11.9388 C.2     1  UNL1        0.2277
     15 O          63.3356   84.1256   10.4422 O.2     1  UNL1       -0.2747
     16 N          62.6528   85.2505   12.6824 N.am    1  UNL1       -0.2693
     17 H          62.5901   85.2257   13.6646 H       1  UNL1        0.1563
     18 C          65.6351   94.0164   11.2633 C.3     1  UNL1        0.1410
     19 O          64.7235   94.5986   10.2242 O.3     1  UNL1       -0.3771
     20 H          64.0433   93.9480    9.9896 H       1  UNL1        0.2112
     21 C          66.5467   93.4342   12.3025 C.ar    1  UNL1        0.0825
     22 C          67.5988   92.3911   12.0678 C.ar    1  UNL1        0.1157
     23 N          68.2687   92.1050   13.3791 N.ar    1  UNL1       -0.2228
     24 C          67.6306   92.9713   14.4243 C.ar    1  UNL1        0.1749
     25 N          66.5664   93.7928   13.7589 N.ar    1  UNL1       -0.3361
     26 H          65.9832   94.4516   14.2006 H       1  UNL1        0.1673
     27 C          66.4284   95.2893   11.2807 C.3     1  UNL1        0.0340
     28 C          66.2313   96.2808   12.3889 C.3     1  UNL1        0.0031
     29 C          67.4188   95.5708   10.1898 C.3     1  UNL1        0.0031
@<TRIPOS>BOND
     1    13    14    1
     2    14    15    2
     3    14    16   am
     4    16     7    1
     5     7     8   ar
     6     8     9   ar
     7     9    10   ar
     8    10    11   ar
     9    11     1    1
    10     1     2   ar
    11     2     3   ar
    12     3     4   ar
    13     4    18    1
    14    18    19    1
    15    18    21    1
    16    21    22   ar
    17    22    23   ar
    18    23    24   ar
    19    24    25   ar
    20    18    27    1
    21    27    28    1
    22    27    29    1
    23     4     5   ar
    24     5     6   ar
    25    11    12   ar
    26    12     7   ar
    27     6     1   ar
    28    25    21   ar
    29    16    17    1
    30    19    20    1
    31    25    26    1
@<TRIPOS>MOLECULE
*****
 29 31 0 0 0
SMALL
GASTEIGER

@<TRIPOS>ATOM
      1 C          63.1878   89.8499   12.0006 C.ar    1  UNL1        0.0177
      2 C          63.6517   91.2194   11.6015 C.ar    1  UNL1        0.0013
      3 C          64.6431   91.9537   12.4548 C.ar    1  UNL1       -0.0016
      4 C          65.1705   91.3185   13.7072 C.ar    1  UNL1        0.0070
      5 C          64.7066   89.9489   14.1062 C.ar    1  UNL1       -0.0016
      6 C          63.7153   89.2147   13.2529 C.ar    1  UNL1        0.0013
      7 C          60.5926   89.0590    9.1042 C.ar    1  UNL1        0.1341
      8 C          60.2138   87.6472    9.4407 C.ar    1  UNL1        0.0345
      9 C          60.8264   86.9696   10.6305 C.ar    1  UNL1        0.0044
     10 C          61.8177   87.7038   11.4838 C.ar    1  UNL1        0.0192
     11 C          62.1965   89.1156   11.1473 C.ar    1  UNL1        0.0827
     12 N          61.5839   89.7932    9.9575 N.ar    1  UNL1       -0.2305
     13 C          58.4171   89.6626    5.8403 C.3     1  UNL1        0.0950
     14 C          59.0297   88.9850    7.0301 C.2     1  UNL1        0.2277
     15 O          58.6919   87.5557    7.3356 O.2     1  UNL1       -0.2747
     16 N          59.9800   89.7366    7.9144 N.am    1  UNL1       -0.2693
     17 H          60.2017   90.6746    7.7139 H       1  UNL1        0.1563
     18 C          66.1619   92.0527   14.5604 C.3     1  UNL1        0.1410
     19 O          65.1656   92.0956   15.6809 O.3     1  UNL1       -0.3771
     20 H          64.3464   91.6572   15.4022 H       1  UNL1        0.2112
     21 C          67.1581   92.0098   13.4399 C.ar    1  UNL1        0.0825
     22 C          66.9799   92.6128   12.0781 C.ar    1  UNL1        0.1157
     23 N          68.2192   92.3320   11.2809 N.ar    1  UNL1       -0.2228
     24 C          69.1634   91.5555   12.1502 C.ar    1  UNL1        0.1749
     25 N          68.5076   91.3563   13.4845 N.ar    1  UNL1       -0.3361
     26 H          68.8949   90.8803   14.2543 H       1  UNL1        0.1673
     27 C          67.1532   92.7869   15.4137 C.3     1  UNL1        0.0340
     28 C          67.7203   92.1310   16.6377 C.3     1  UNL1        0.0031
     29 C          67.5774   94.1772   15.0431 C.3     1  UNL1        0.0031
@<TRIPOS>BOND
     1    13    14    1
     2    14    15    2
     3    14    16   am
     4    16     7    1
     5     7     8   ar
     6     8     9   ar
     7     9    10   ar
     8    10    11   ar
     9    11     1    1
    10     1     2   ar
    11     2     3   ar
    12     3     4   ar
    13     4    18    1
    14    18    19    1
    15    18    21    1
    16    21    22   ar
    17    22    23   ar
    18    23    24   ar
    19    24    25   ar
    20    18    27    1
    21    27    28    1
    22    27    29    1
    23     4     5   ar
    24     5     6   ar
    25    11    12   ar
    26    12     7   ar
    27     6     1   ar
    28    25    21   ar
    29    16    17    1
    30    19    20    1
    31    25    26    1
@<TRIPOS>MOLECULE
*****
 29 31 0 0 0
SMALL
GASTEIGER

@<TRIPOS>ATOM
      1 C          62.9842   87.5298   11.8143 C.ar    1  UNL1        0.0177
      2 C          62.1284   86.7228   10.8836 C.ar    1  UNL1        0.0013
      3 C          61.9600   85.2491   11.1075 C.ar    1  UNL1       -0.0016
      4 C          62.6475   84.5826   12.2621 C.ar    1  UNL1        0.0070
      5 C          63.5033   85.3897   13.1928 C.ar    1  UNL1       -0.0016
      6 C          63.6716   86.8633   12.9689 C.ar    1  UNL1        0.0013
      7 C          64.0147   91.3178   12.3971 C.ar    1  UNL1        0.1341
      8 C          63.4892   91.9507   11.1428 C.ar    1  UNL1        0.0345
      9 C          62.7954   91.1100   10.1123 C.ar    1  UNL1        0.0044
     10 C          62.6270   89.6364   10.3361 C.ar    1  UNL1        0.0192
     11 C          63.1525   89.0035   11.5904 C.ar    1  UNL1        0.0827
     12 N          63.8463   89.8442   12.6209 N.ar    1  UNL1       -0.2305
     13 C          66.7607   93.5671   14.1717 C.3     1  UNL1        0.0950
     14 C          66.0669   92.7264   13.1413 C.2     1  UNL1        0.2277
     15 O          66.7316   92.4537   11.8245 O.2     1  UNL1       -0.2747
     16 N          64.7085   92.1584   13.4275 N.am    1  UNL1       -0.2693
     17 H          64.2722   92.3374   14.2918 H       1  UNL1        0.1563
     18 C          62.4792   83.1090   12.4860 C.3     1  UNL1        0.1410
     19 O          62.1507   82.9259   11.0339 O.3     1  UNL1       -0.3771
     20 H          62.1825   83.7848   10.5844 H       1  UNL1        0.2112
     21 C          62.8077   83.2921   13.9380 C.ar    1  UNL1        0.0825
     22 C          64.0442   82.8011   14.6310 C.ar    1  UNL1        0.1157
     23 N          63.9582   83.2039   16.0734 N.ar    1  UNL1       -0.2228
     24 C          62.6685   83.9439   16.2719 C.ar    1  UNL1        0.1749
     25 N          61.9575   83.9983   14.9522 N.ar    1  UNL1       -0.3361
     26 H          61.0859   84.4230   14.7816 H       1  UNL1        0.1673
     27 C          62.3109   81.6354   12.7099 C.3     1  UNL1        0.0340
     28 C          63.0825   80.6569   11.8749 C.3     1  UNL1        0.0031
     29 C          61.3709   81.1402   13.7688 C.3     1  UNL1        0.0031
@<TRIPOS>BOND
     1    13    14    1
     2    14    15    2
     3    14    16   am
     4    16     7    1
     5     7     8   ar
     6     8     9   ar
     7     9    10   ar
     8    10    11   ar
     9    11     1    1
    10     1     2   ar
    11     2     3   ar
    12     3     4   ar
    13     4    18    1
    14    18    19    1
    15    18    21    1
    16    21    22   ar
    17    22    23   ar
    18    23    24   ar
    19    24    25   ar
    20    18    27    1
    21    27    28    1
    22    27    29    1
    23     4     5   ar
    24     5     6   ar
    25    11    12   ar
    26    12     7   ar
    27     6     1   ar
    28    25    21   ar
    29    16    17    1
    30    19    20    1
    31    25    26    1
