@<TRIPOS>MOLECULE
*****
 37 41 0 0 0
SMALL
GASTEIGER

@<TRIPOS>ATOM
      1 O          62.3035   88.3374   12.3931 O.3     1  UNL1       -0.4528
      2 C          62.7553   86.0434   11.2602 C.ar    1  UNL1        0.0527
      3 C          62.6633   85.1458   10.0619 C.ar    1  UNL1        0.0159
      4 C          62.0275   85.6447    8.7982 C.ar    1  UNL1        0.0579
      5 CL         61.9355   84.7471    7.5999 Cl      1  UNL1       -0.0822
      6 C          61.4837   87.0411    8.7329 C.ar    1  UNL1        0.0145
      7 C          61.5757   87.9387    9.9311 C.ar    1  UNL1        0.0384
      8 C          62.2115   87.4398   11.1948 C.ar    1  UNL1        0.1467
      9 N          63.7297   84.1171   12.8366 N.ar    1  UNL1       -0.2499
     10 N          64.3478   84.0758   14.2027 N.ar    1  UNL1       -0.1677
     11 C          64.3912   85.4779   14.7343 C.ar    1  UNL1        0.1217
     12 C          63.7999   86.3855   13.6968 C.ar    1  UNL1        0.0413
     13 C          63.3911   85.5445   12.5239 C.ar    1  UNL1        0.0824
     14 N          63.1557   81.2702   10.6733 N.3     1  UNL1       -0.2693
     15 C          64.1738   82.3703   10.7310 C.3     1  UNL1        0.0982
     16 C          63.4920   82.9379   11.9405 C.3     1  UNL1        0.1369
     17 C          62.4739   81.8378   11.8828 C.3     1  UNL1        0.0982
     18 C          62.7995   78.7154   10.3634 C.3     1  UNL1        0.0188
     19 C          62.9180   80.0910    9.7772 C.3     1  UNL1        0.0723
     20 C          63.1444   89.5783   12.3379 C.ar    1  UNL1        0.1549
     21 C          63.3786   90.2678   11.0265 C.ar    1  UNL1        0.0396
     22 C          64.2195   91.5087   10.9712 C.ar    1  UNL1        0.0234
     23 C          64.8262   92.0601   12.2274 C.ar    1  UNL1        0.1261
     24 C          64.5920   91.3706   13.5388 C.ar    1  UNL1        0.0335
     25 C          63.7511   90.1297   13.5940 C.ar    1  UNL1        0.1042
     26 S          65.6671   93.3010   12.1722 S.O2    1  UNL1        0.0747
     27 O          65.3823   93.4287   10.7051 O.2     1  UNL1       -0.1499
     28 O          65.9519   93.1733   13.6394 O.2     1  UNL1       -0.1499
     29 N          66.5080   94.5419   12.1170 N.pl3   1  UNL1       -0.1985
     30 H          66.8977   94.9096   12.9429 H       1  UNL1        0.1753
     31 C          66.7552   95.2225   10.8034 C.ar    1  UNL1        0.1542
     32 C          66.1526   96.5213   10.3562 C.ar    1  UNL1        0.0725
     33 S          66.6733   96.8254    8.9828 S.2     1  UNL1       -0.0625
     34 C          67.5978   95.7145    8.5811 C.ar    1  UNL1        0.1360
     35 N          67.6484   94.7239    9.7063 N.ar    1  UNL1       -0.2203
     36 C          63.5169   89.4402   14.9054 C.1     1  UNL1        0.1035
     37 N          63.2827   88.7506   16.2168 N.1     1  UNL1       -0.1907
@<TRIPOS>BOND
     1    18    19    1
     2    19    14    1
     3    14    15    1
     4    15    16    1
     5    16     9    1
     6     9    10   ar
     7    10    11   ar
     8    11    12   ar
     9    12    13   ar
    10    13     2    1
    11     2     3   ar
    12     3     4   ar
    13     4     5    1
    14     4     6   ar
    15     6     7   ar
    16     7     8   ar
    17     8     1    1
    18     1    20    1
    19    20    21   ar
    20    21    22   ar
    21    22    23   ar
    22    23    26    1
    23    26    27    2
    24    26    28    2
    25    26    29    1
    26    29    31    1
    27    31    32   ar
    28    32    33   ar
    29    33    34   ar
    30    34    35   ar
    31    23    24   ar
    32    24    25   ar
    33    25    36    1
    34    36    37    3
    35    16    17    1
    36    17    14    1
    37    13     9   ar
    38     8     2   ar
    39    25    20   ar
    40    35    31   ar
    41    29    30    1
@<TRIPOS>MOLECULE
*****
 37 41 0 0 0
SMALL
GASTEIGER

@<TRIPOS>ATOM
      1 O          62.1650   88.1654   12.3588 O.3     1  UNL1       -0.4528
      2 C          63.2204   85.7913   12.3527 C.ar    1  UNL1        0.0527
      3 C          63.6022   84.5413   11.6167 C.ar    1  UNL1        0.0159
      4 C          63.3104   84.4153   10.1508 C.ar    1  UNL1        0.0579
      5 CL         63.6922   83.1653    9.4148 Cl      1  UNL1       -0.0822
      6 C          62.6369   85.5394    9.4208 C.ar    1  UNL1        0.0145
      7 C          62.2551   86.7894   10.1568 C.ar    1  UNL1        0.0384
      8 C          62.5468   86.9153   11.6227 C.ar    1  UNL1        0.1467
      9 N          63.4790   84.8037   14.8231 N.ar    1  UNL1       -0.2499
     10 N          63.8345   85.3771   16.1628 N.ar    1  UNL1       -0.1677
     11 C          64.0874   86.8451   15.9863 C.ar    1  UNL1        0.1217
     12 C          63.8881   87.1789   14.5376 C.ar    1  UNL1        0.0413
     13 C          63.5121   85.9173   13.8187 C.ar    1  UNL1        0.0824
     14 N          62.6807   81.3392   14.1347 N.3     1  UNL1       -0.2693
     15 C          63.9434   82.1474   14.1824 C.3     1  UNL1        0.0982
     16 C          63.1483   83.3686   14.5380 C.3     1  UNL1        0.1369
     17 C          61.8856   82.5604   14.4902 C.3     1  UNL1        0.0982
     18 C          62.4571   79.3736   12.4506 C.3     1  UNL1        0.0188
     19 C          62.3500   79.9042   13.8495 C.3     1  UNL1        0.0723
     20 C          63.0366   89.3831   12.2712 C.ar    1  UNL1        0.1549
     21 C          64.0662   89.6461   13.3299 C.ar    1  UNL1        0.0396
     22 C          64.9377   90.8638   13.2424 C.ar    1  UNL1        0.0234
     23 C          64.7796   91.8185   12.0962 C.ar    1  UNL1        0.1261
     24 C          63.7500   91.5554   11.0376 C.ar    1  UNL1        0.0335
     25 C          62.8785   90.3377   11.1251 C.ar    1  UNL1        0.1042
     26 S          65.6512   93.0362   12.0086 S.O2    1  UNL1        0.0747
     27 O          65.6367   92.9389   10.5118 O.2     1  UNL1       -0.1499
     28 O          65.6657   93.1334   13.5054 O.2     1  UNL1       -0.1499
     29 N          66.5227   94.2538   11.9211 N.pl3   1  UNL1       -0.1985
     30 H          67.0332   94.5514   12.7085 H       1  UNL1        0.1753
     31 C          66.6164   95.0181   10.6338 C.ar    1  UNL1        0.1542
     32 C          65.6192   96.0176   10.1273 C.ar    1  UNL1        0.0725
     33 S          66.1102   96.5343    8.8075 S.2     1  UNL1       -0.0625
     34 C          67.4110   95.8542    8.4983 C.ar    1  UNL1        0.1360
     35 N          67.7238   94.9171    9.6271 N.ar    1  UNL1       -0.2203
     36 C          61.8489   90.0746   10.0664 C.1     1  UNL1        0.1035
     37 N          60.8193   89.8116    9.0078 N.1     1  UNL1       -0.1907
@<TRIPOS>BOND
     1    18    19    1
     2    19    14    1
     3    14    15    1
     4    15    16    1
     5    16     9    1
     6     9    10   ar
     7    10    11   ar
     8    11    12   ar
     9    12    13   ar
    10    13     2    1
    11     2     3   ar
    12     3     4   ar
    13     4     5    1
    14     4     6   ar
    15     6     7   ar
    16     7     8   ar
    17     8     1    1
    18     1    20    1
    19    20    21   ar
    20    21    22   ar
    21    22    23   ar
    22    23    26    1
    23    26    27    2
    24    26    28    2
    25    26    29    1
    26    29    31    1
    27    31    32   ar
    28    32    33   ar
    29    33    34   ar
    30    34    35   ar
    31    23    24   ar
    32    24    25   ar
    33    25    36    1
    34    36    37    3
    35    16    17    1
    36    17    14    1
    37    13     9   ar
    38     8     2   ar
    39    25    20   ar
    40    35    31   ar
    41    29    30    1
@<TRIPOS>MOLECULE
*****
 37 41 0 0 0
SMALL
GASTEIGER

@<TRIPOS>ATOM
      1 O          62.4755   89.1292   13.2984 O.3     1  UNL1       -0.4528
      2 C          61.9573   87.2656   11.5638 C.ar    1  UNL1        0.0527
      3 C          62.1416   85.8603   11.0728 C.ar    1  UNL1        0.0159
      4 C          63.0284   84.9132   11.8254 C.ar    1  UNL1        0.0579
      5 CL         63.2128   83.5078   11.3345 Cl      1  UNL1       -0.0822
      6 C          63.7310   85.3714   13.0690 C.ar    1  UNL1        0.0145
      7 C          63.5467   86.7767   13.5600 C.ar    1  UNL1        0.0384
      8 C          62.6598   87.7238   12.8074 C.ar    1  UNL1        0.1467
      9 N          60.5872   88.0371    9.4021 N.ar    1  UNL1       -0.2499
     10 N          59.7292   89.2176    9.0556 N.ar    1  UNL1       -0.1677
     11 C          59.6821   90.1230   10.2506 C.ar    1  UNL1        0.1217
     12 C          60.5110   89.5020   11.3356 C.ar    1  UNL1        0.0413
     13 C          61.0704   88.2128   10.8112 C.ar    1  UNL1        0.0824
     14 N          61.3571   85.2516    7.2198 N.3     1  UNL1       -0.2693
     15 C          60.1127   86.0124    7.5697 C.3     1  UNL1        0.0982
     16 C          60.9061   86.8833    8.4981 C.3     1  UNL1        0.1369
     17 C          62.1506   86.1224    8.1482 C.3     1  UNL1        0.0982
     18 C          62.0198   84.3451    4.8769 C.3     1  UNL1        0.0188
     19 C          61.6759   84.0978    6.3159 C.3     1  UNL1        0.0723
     20 C          63.4165   90.2089   12.8525 C.ar    1  UNL1        0.1549
     21 C          63.6600   90.4345   11.3896 C.ar    1  UNL1        0.0396
     22 C          64.6010   91.5142   10.9438 C.ar    1  UNL1        0.0234
     23 C          65.2985   92.3683   11.9607 C.ar    1  UNL1        0.1261
     24 C          65.0549   92.1426   13.4235 C.ar    1  UNL1        0.0335
     25 C          64.1139   91.0629   13.8694 C.ar    1  UNL1        0.1042
     26 S          66.2395   93.4479   11.5149 S.O2    1  UNL1        0.0747
     27 O          66.2443   92.8718   10.1299 O.2     1  UNL1       -0.1499
     28 O          66.2347   94.0241   12.8998 O.2     1  UNL1       -0.1499
     29 N          67.1805   94.5276   11.0690 N.pl3   1  UNL1       -0.1985
     30 H          68.0236   94.6773   11.5547 H       1  UNL1        0.1753
     31 C          66.8369   95.3793    9.8830 C.ar    1  UNL1        0.1542
     32 C          67.7062   95.6115    8.6829 C.ar    1  UNL1        0.0725
     33 S          66.9703   96.5240    7.7470 S.2     1  UNL1       -0.0625
     34 C          65.6460   96.8557    8.3688 C.ar    1  UNL1        0.1360
     35 N          65.5637   96.1482    9.6889 N.ar    1  UNL1       -0.2203
     36 C          63.8704   90.8373   15.3322 C.1     1  UNL1        0.1035
     37 N          63.6270   90.6118   16.7950 N.1     1  UNL1       -0.1907
@<TRIPOS>BOND
     1    18    19    1
     2    19    14    1
     3    14    15    1
     4    15    16    1
     5    16     9    1
     6     9    10   ar
     7    10    11   ar
     8    11    12   ar
     9    12    13   ar
    10    13     2    1
    11     2     3   ar
    12     3     4   ar
    13     4     5    1
    14     4     6   ar
    15     6     7   ar
    16     7     8   ar
    17     8     1    1
    18     1    20    1
    19    20    21   ar
    20    21    22   ar
    21    22    23   ar
    22    23    26    1
    23    26    27    2
    24    26    28    2
    25    26    29    1
    26    29    31    1
    27    31    32   ar
    28    32    33   ar
    29    33    34   ar
    30    34    35   ar
    31    23    24   ar
    32    24    25   ar
    33    25    36    1
    34    36    37    3
    35    16    17    1
    36    17    14    1
    37    13     9   ar
    38     8     2   ar
    39    25    20   ar
    40    35    31   ar
    41    29    30    1
@<TRIPOS>MOLECULE
*****
 37 41 0 0 0
SMALL
GASTEIGER

@<TRIPOS>ATOM
      1 O          62.0173   86.8676   12.1203 O.3     1  UNL1       -0.4528
      2 C          63.4880   84.7289   12.2367 C.ar    1  UNL1        0.0527
      3 C          64.1426   83.5639   11.5555 C.ar    1  UNL1        0.0159
      4 C          63.9813   83.3725   10.0766 C.ar    1  UNL1        0.0579
      5 CL         64.6360   82.2074    9.3953 Cl      1  UNL1       -0.0822
      6 C          63.1654   84.3461    9.2789 C.ar    1  UNL1        0.0145
      7 C          62.5107   85.5111    9.9601 C.ar    1  UNL1        0.0384
      8 C          62.6720   85.7025   11.4390 C.ar    1  UNL1        0.1467
      9 N          63.0947   84.0276   14.7860 N.ar    1  UNL1       -0.2499
     10 N          63.4960   84.5937   16.1159 N.ar    1  UNL1       -0.1677
     11 C          64.2987   85.8363   15.8675 C.ar    1  UNL1        0.1217
     12 C          64.3933   86.0382   14.3841 C.ar    1  UNL1        0.0413
     13 C          63.6492   84.9204   13.7158 C.ar    1  UNL1        0.0824
     14 N          61.1316   81.0316   14.2529 N.3     1  UNL1       -0.2693
     15 C          60.8475   82.4053   14.7842 C.3     1  UNL1        0.0982
     16 C          62.2815   82.7867   14.5652 C.3     1  UNL1        0.1369
     17 C          62.5656   81.4129   14.0339 C.3     1  UNL1        0.0982
     18 C          58.8593   79.7785   14.3796 C.3     1  UNL1        0.0188
     19 C          60.3184   79.7907   14.0321 C.3     1  UNL1        0.0723
     20 C          62.7865   88.1362   12.3413 C.ar    1  UNL1        0.1549
     21 C          63.6975   88.2643   13.5261 C.ar    1  UNL1        0.0396
     22 C          64.4667   89.5330   13.7470 C.ar    1  UNL1        0.0234
     23 C          64.3249   90.6736   12.7831 C.ar    1  UNL1        0.1261
     24 C          63.4139   90.5455   11.5984 C.ar    1  UNL1        0.0335
     25 C          62.6447   89.2768   11.3775 C.ar    1  UNL1        0.1042
     26 S          65.0941   91.9422   13.0041 S.O2    1  UNL1        0.0747
     27 O          64.8865   91.8105   14.4838 O.2     1  UNL1       -0.1499
     28 O          65.3017   92.0740   11.5243 O.2     1  UNL1       -0.1499
     29 N          65.8633   93.2109   13.2250 N.pl3   1  UNL1       -0.1985
     30 H          65.5450   94.0547   12.8301 H       1  UNL1        0.1753
     31 C          67.1175   93.1940   14.0476 C.ar    1  UNL1        0.1542
     32 C          67.3597   93.9799   15.3021 C.ar    1  UNL1        0.0725
     33 S          68.7415   93.6599   15.7900 S.2     1  UNL1       -0.0625
     34 C          69.3534   92.6762   14.8370 C.ar    1  UNL1        0.1360
     35 N          68.3496   92.3883   13.7602 N.ar    1  UNL1       -0.2203
     36 C          61.7337   89.1487   10.1926 C.1     1  UNL1        0.1035
     37 N          60.8227   89.0206    9.0079 N.1     1  UNL1       -0.1907
@<TRIPOS>BOND
     1    18    19    1
     2    19    14    1
     3    14    15    1
     4    15    16    1
     5    16     9    1
     6     9    10   ar
     7    10    11   ar
     8    11    12   ar
     9    12    13   ar
    10    13     2    1
    11     2     3   ar
    12     3     4   ar
    13     4     5    1
    14     4     6   ar
    15     6     7   ar
    16     7     8   ar
    17     8     1    1
    18     1    20    1
    19    20    21   ar
    20    21    22   ar
    21    22    23   ar
    22    23    26    1
    23    26    27    2
    24    26    28    2
    25    26    29    1
    26    29    31    1
    27    31    32   ar
    28    32    33   ar
    29    33    34   ar
    30    34    35   ar
    31    23    24   ar
    32    24    25   ar
    33    25    36    1
    34    36    37    3
    35    16    17    1
    36    17    14    1
    37    13     9   ar
    38     8     2   ar
    39    25    20   ar
    40    35    31   ar
    41    29    30    1
@<TRIPOS>MOLECULE
*****
 37 41 0 0 0
SMALL
GASTEIGER

@<TRIPOS>ATOM
      1 O          62.7464   88.8348   12.9673 O.3     1  UNL1       -0.4528
      2 C          63.3468   86.3101   12.8422 C.ar    1  UNL1        0.0527
      3 C          63.9672   85.0904   13.4565 C.ar    1  UNL1        0.0159
      4 C          64.6076   85.1756   14.8102 C.ar    1  UNL1        0.0579
      5 CL         65.2281   83.9559   15.4246 Cl      1  UNL1       -0.0822
      6 C          64.6276   86.4806   15.5496 C.ar    1  UNL1        0.0145
      7 C          64.0073   87.7003   14.9354 C.ar    1  UNL1        0.0384
      8 C          63.3668   87.6150   13.5817 C.ar    1  UNL1        0.1467
      9 N          62.3426   84.9634   10.7630 N.ar    1  UNL1       -0.2499
     10 N          61.7287   85.3450    9.4487 N.ar    1  UNL1       -0.1677
     11 C          61.7130   86.8425    9.3619 C.ar    1  UNL1        0.1217
     12 C          62.3173   87.3863   10.6225 C.ar    1  UNL1        0.0413
     13 C          62.7064   86.2249   11.4885 C.ar    1  UNL1        0.0824
     14 N          62.8564   81.5888   11.9722 N.3     1  UNL1       -0.2693
     15 C          62.0748   82.7780   12.4465 C.3     1  UNL1        0.0982
     16 C          62.5554   83.5656   11.2639 C.3     1  UNL1        0.1369
     17 C          63.3371   82.3764   10.7896 C.3     1  UNL1        0.0982
     18 C          62.1734   79.6316   13.5383 C.3     1  UNL1        0.0188
     19 C          63.0692   80.1911   12.4731 C.3     1  UNL1        0.0723
     20 C          63.5905   90.0403   12.6771 C.ar    1  UNL1        0.1549
     21 C          64.7716   90.3558   13.5464 C.ar    1  UNL1        0.0396
     22 C          65.6157   91.5613   13.2562 C.ar    1  UNL1        0.0234
     23 C          65.2787   92.4513   12.0967 C.ar    1  UNL1        0.1261
     24 C          64.0977   92.1358   11.2275 C.ar    1  UNL1        0.0335
     25 C          63.2536   90.9303   11.5177 C.ar    1  UNL1        0.1042
     26 S          66.1228   93.6569   11.8065 S.O2    1  UNL1        0.0747
     27 O          66.9190   93.3990   13.0513 O.2     1  UNL1       -0.1499
     28 O          65.3266   93.9147   10.5616 O.2     1  UNL1       -0.1499
     29 N          66.9669   94.8624   11.5163 N.pl3   1  UNL1       -0.1985
     30 H          67.4842   95.2866   12.2386 H       1  UNL1        0.1753
     31 C          67.0229   95.4216   10.1256 C.ar    1  UNL1        0.1542
     32 C          66.3499   96.6755    9.6517 C.ar    1  UNL1        0.0725
     33 S          66.6728   96.8540    8.1978 S.2     1  UNL1       -0.0625
     34 C          67.5455   95.7102    7.7730 C.ar    1  UNL1        0.1360
     35 N          67.7619   94.8250    8.9645 N.ar    1  UNL1       -0.2203
     36 C          62.0725   90.6148   10.6484 C.1     1  UNL1        0.1035
     37 N          60.8915   90.2993    9.7792 N.1     1  UNL1       -0.1907
@<TRIPOS>BOND
     1    18    19    1
     2    19    14    1
     3    14    15    1
     4    15    16    1
     5    16     9    1
     6     9    10   ar
     7    10    11   ar
     8    11    12   ar
     9    12    13   ar
    10    13     2    1
    11     2     3   ar
    12     3     4   ar
    13     4     5    1
    14     4     6   ar
    15     6     7   ar
    16     7     8   ar
    17     8     1    1
    18     1    20    1
    19    20    21   ar
    20    21    22   ar
    21    22    23   ar
    22    23    26    1
    23    26    27    2
    24    26    28    2
    25    26    29    1
    26    29    31    1
    27    31    32   ar
    28    32    33   ar
    29    33    34   ar
    30    34    35   ar
    31    23    24   ar
    32    24    25   ar
    33    25    36    1
    34    36    37    3
    35    16    17    1
    36    17    14    1
    37    13     9   ar
    38     8     2   ar
    39    25    20   ar
    40    35    31   ar
    41    29    30    1
@<TRIPOS>MOLECULE
*****
 37 41 0 0 0
SMALL
GASTEIGER

@<TRIPOS>ATOM
      1 O          62.3475   88.6948   12.5161 O.3     1  UNL1       -0.4528
      2 C          61.3690   86.9244   10.8857 C.ar    1  UNL1        0.0527
      3 C          60.4193   86.5573    9.7842 C.ar    1  UNL1        0.0159
      4 C          59.4985   87.5937    9.2115 C.ar    1  UNL1        0.0579
      5 CL         58.5488   87.2267    8.1099 Cl      1  UNL1       -0.0822
      6 C          59.5273   88.9971    9.7404 C.ar    1  UNL1        0.0145
      7 C          60.4770   89.3641   10.8419 C.ar    1  UNL1        0.0384
      8 C          61.3978   88.3278   11.4145 C.ar    1  UNL1        0.1467
      9 N          63.0521   84.8581   10.6784 N.ar    1  UNL1       -0.2499
     10 N          63.8435   84.0332   11.6495 N.ar    1  UNL1       -0.1677
     11 C          63.5704   84.5532   13.0298 C.ar    1  UNL1        0.1217
     12 C          62.6102   85.6995   12.9116 C.ar    1  UNL1        0.0413
     13 C          62.2899   85.8880   11.4584 C.ar    1  UNL1        0.0824
     14 N          62.9923   84.4373    7.0821 N.3     1  UNL1       -0.2693
     15 C          62.9239   85.6107    8.0140 C.3     1  UNL1        0.0982
     16 C          63.0273   84.6838    9.1888 C.3     1  UNL1        0.1369
     17 C          63.0957   83.5104    8.2569 C.3     1  UNL1        0.0982
     18 C          61.6574   84.1232    4.8754 C.3     1  UNL1        0.0188
     19 C          62.9675   84.2630    5.5925 C.3     1  UNL1        0.0723
     20 C          63.2225   89.9054   12.3797 C.ar    1  UNL1        0.1549
     21 C          63.4612   90.5097   11.0276 C.ar    1  UNL1        0.0396
     22 C          64.3362   91.7204   10.8912 C.ar    1  UNL1        0.0234
     23 C          64.9726   92.3267   12.1067 C.ar    1  UNL1        0.1261
     24 C          64.7339   91.7224   13.4586 C.ar    1  UNL1        0.0335
     25 C          63.8589   90.5118   13.5951 C.ar    1  UNL1        0.1042
     26 S          65.8476   93.5374   11.9702 S.O2    1  UNL1        0.0747
     27 O          65.6025   93.5478   10.4904 O.2     1  UNL1       -0.1499
     28 O          66.0928   93.5270   13.4500 O.2     1  UNL1       -0.1499
     29 N          66.7226   94.7481   11.8338 N.pl3   1  UNL1       -0.1985
     30 H          67.2245   95.0829   12.6117 H       1  UNL1        0.1753
     31 C          66.8331   95.4485   10.5120 C.ar    1  UNL1        0.1542
     32 C          65.8196   96.3843    9.9227 C.ar    1  UNL1        0.0725
     33 S          66.3365   96.8503    8.5939 S.2     1  UNL1       -0.0625
     34 C          67.6694   96.2025    8.3619 C.ar    1  UNL1        0.1360
     35 N          67.9763   95.3362    9.5474 N.ar    1  UNL1       -0.2203
     36 C          63.6202   89.9074   14.9471 C.1     1  UNL1        0.1035
     37 N          63.3815   89.3031   16.2991 N.1     1  UNL1       -0.1907
@<TRIPOS>BOND
     1    18    19    1
     2    19    14    1
     3    14    15    1
     4    15    16    1
     5    16     9    1
     6     9    10   ar
     7    10    11   ar
     8    11    12   ar
     9    12    13   ar
    10    13     2    1
    11     2     3   ar
    12     3     4   ar
    13     4     5    1
    14     4     6   ar
    15     6     7   ar
    16     7     8   ar
    17     8     1    1
    18     1    20    1
    19    20    21   ar
    20    21    22   ar
    21    22    23   ar
    22    23    26    1
    23    26    27    2
    24    26    28    2
    25    26    29    1
    26    29    31    1
    27    31    32   ar
    28    32    33   ar
    29    33    34   ar
    30    34    35   ar
    31    23    24   ar
    32    24    25   ar
    33    25    36    1
    34    36    37    3
    35    16    17    1
    36    17    14    1
    37    13     9   ar
    38     8     2   ar
    39    25    20   ar
    40    35    31   ar
    41    29    30    1
@<TRIPOS>MOLECULE
*****
 37 41 0 0 0
SMALL
GASTEIGER

@<TRIPOS>ATOM
      1 O          62.3620   87.6796   12.8729 O.3     1  UNL1       -0.4528
      2 C          63.0517   85.5727   11.5181 C.ar    1  UNL1        0.0527
      3 C          63.1403   84.8392   10.2127 C.ar    1  UNL1        0.0159
      4 C          62.6277   85.4791    8.9566 C.ar    1  UNL1        0.0579
      5 CL         62.7162   84.7456    7.6511 Cl      1  UNL1       -0.0822
      6 C          62.0266   86.8525    9.0059 C.ar    1  UNL1        0.0145
      7 C          61.9380   87.5860   10.3113 C.ar    1  UNL1        0.0384
      8 C          62.4506   86.9461   11.5674 C.ar    1  UNL1        0.1467
      9 N          63.7290   83.4606   13.0100 N.ar    1  UNL1       -0.2499
     10 N          64.2686   83.2707   14.3966 N.ar    1  UNL1       -0.1677
     11 C          64.4376   84.6256   15.0178 C.ar    1  UNL1        0.1217
     12 C          64.0023   85.6528   14.0151 C.ar    1  UNL1        0.0413
     13 C          63.5643   84.9328   12.7742 C.ar    1  UNL1        0.0824
     14 N          62.9588   80.8273   10.6465 N.3     1  UNL1       -0.2693
     15 C          62.3919   81.2704   11.9626 C.3     1  UNL1        0.0982
     16 C          63.4099   82.3699   12.0310 C.3     1  UNL1        0.1369
     17 C          63.9768   81.9267   10.7148 C.3     1  UNL1        0.0982
     18 C          62.9647   78.3107   10.0012 C.3     1  UNL1        0.0188
     19 C          62.6398   79.7365    9.6675 C.3     1  UNL1        0.0723
     20 C          63.2019   88.9005   13.1056 C.ar    1  UNL1        0.1549
     21 C          63.5465   89.8036   11.9585 C.ar    1  UNL1        0.0396
     22 C          64.3863   91.0244   12.1913 C.ar    1  UNL1        0.0234
     23 C          64.8816   91.3421   13.5711 C.ar    1  UNL1        0.1261
     24 C          64.5371   90.4390   14.7181 C.ar    1  UNL1        0.0335
     25 C          63.6972   89.2182   14.4853 C.ar    1  UNL1        0.1042
     26 S          65.7215   92.5630   13.8039 S.O2    1  UNL1        0.0747
     27 O          65.2640   92.6055   15.2318 O.2     1  UNL1       -0.1499
     28 O          66.1790   92.5205   12.3760 O.2     1  UNL1       -0.1499
     29 N          66.5614   93.7838   14.0366 N.pl3   1  UNL1       -0.1985
     30 H          66.3069   94.6419   13.6265 H       1  UNL1        0.1753
     31 C          67.7889   93.6974   14.8943 C.ar    1  UNL1        0.1542
     32 C          68.6734   92.4959   15.0491 C.ar    1  UNL1        0.0725
     33 S          69.7786   92.8531   15.9983 S.2     1  UNL1       -0.0625
     34 C          69.5771   94.2755   16.4301 C.ar    1  UNL1        0.1360
     35 N          68.3474   94.7972   15.7478 N.ar    1  UNL1       -0.2203
     36 C          63.3526   88.3150   15.6324 C.1     1  UNL1        0.1035
     37 N          63.0081   87.4120   16.7794 N.1     1  UNL1       -0.1907
@<TRIPOS>BOND
     1    18    19    1
     2    19    14    1
     3    14    15    1
     4    15    16    1
     5    16     9    1
     6     9    10   ar
     7    10    11   ar
     8    11    12   ar
     9    12    13   ar
    10    13     2    1
    11     2     3   ar
    12     3     4   ar
    13     4     5    1
    14     4     6   ar
    15     6     7   ar
    16     7     8   ar
    17     8     1    1
    18     1    20    1
    19    20    21   ar
    20    21    22   ar
    21    22    23   ar
    22    23    26    1
    23    26    27    2
    24    26    28    2
    25    26    29    1
    26    29    31    1
    27    31    32   ar
    28    32    33   ar
    29    33    34   ar
    30    34    35   ar
    31    23    24   ar
    32    24    25   ar
    33    25    36    1
    34    36    37    3
    35    16    17    1
    36    17    14    1
    37    13     9   ar
    38     8     2   ar
    39    25    20   ar
    40    35    31   ar
    41    29    30    1
