@<TRIPOS>MOLECULE
*****
 20 22 0 0 0
SMALL
GASTEIGER

@<TRIPOS>ATOM
      1 N          66.9089   93.4237   13.1509 N.pl3   1  UNL1       -0.3375
      2 C          65.7756   92.5856   12.6380 C.ar    1  UNL1        0.1567
      3 N          65.2078   92.6246   11.2502 N.ar    1  UNL1       -0.2245
      4 C          64.0924   91.6244   11.1773 C.ar    1  UNL1        0.0894
      5 C          63.1717   91.2272   10.0618 C.ar    1  UNL1        0.0228
      6 C          62.1294   90.1728   10.2890 C.ar    1  UNL1        0.0385
      7 C          62.0077   89.5156   11.6319 C.ar    1  UNL1        0.1397
      8 C          62.9284   89.9128   12.7475 C.ar    1  UNL1        0.0450
      9 C          63.9707   90.9672   12.5202 C.ar    1  UNL1        0.0527
     10 S          65.0110   91.5612   13.4229 S.2     1  UNL1       -0.0519
     11 H          67.3500   94.0723   12.5560 H       1  UNL1        0.1442
     12 H          67.2117   93.3252   14.0825 H       1  UNL1        0.1442
     13 O          60.9653   88.4611   11.8591 O.3     1  UNL1       -0.4706
     14 C          60.6097   87.5082   10.7566 C.3     1  UNL1        0.2320
     15 C          61.5661   86.4197   10.3685 C.ar    1  UNL1        0.0212
     16 C          62.0684   86.3304    8.9580 C.ar    1  UNL1       -0.0007
     17 C          63.0247   85.2419    8.5699 C.ar    1  UNL1       -0.0002
     18 C          63.4788   84.2427    9.5924 C.ar    1  UNL1       -0.0000
     19 C          62.9765   84.3320   11.0029 C.ar    1  UNL1       -0.0002
     20 C          62.0202   85.4205   11.3910 C.ar    1  UNL1       -0.0007
@<TRIPOS>BOND
     1     1     2    1
     2     2     3   ar
     3     3     4   ar
     4     4     5   ar
     5     5     6   ar
     6     6     7   ar
     7     7    13    1
     8    13    14    1
     9    14    15    1
    10    15    16   ar
    11    16    17   ar
    12    17    18   ar
    13    18    19   ar
    14    19    20   ar
    15     7     8   ar
    16     8     9   ar
    17     9    10   ar
    18    10     2   ar
    19     9     4   ar
    20    20    15   ar
    21     1    11    1
    22     1    12    1
@<TRIPOS>MOLECULE
*****
 20 22 0 0 0
SMALL
GASTEIGER

@<TRIPOS>ATOM
      1 N          68.3763   93.1554   14.9338 N.pl3   1  UNL1       -0.3375
      2 C          67.2436   92.7106   14.0568 C.ar    1  UNL1        0.1567
      3 N          67.0406   93.0881   12.6194 N.ar    1  UNL1       -0.2245
      4 C          65.7865   92.4210   12.1374 C.ar    1  UNL1        0.0894
      5 C          65.0917   92.4307   10.8082 C.ar    1  UNL1        0.0228
      6 C          63.8247   91.6505   10.6185 C.ar    1  UNL1        0.0385
      7 C          63.2526   90.8605   11.7581 C.ar    1  UNL1        0.1397
      8 C          63.9475   90.8508   13.0874 C.ar    1  UNL1        0.0450
      9 C          65.2144   91.6310   13.2771 C.ar    1  UNL1        0.0527
     10 S          66.1149   91.8100   14.4633 S.2     1  UNL1       -0.0519
     11 H          69.0732   93.7504   14.5738 H       1  UNL1        0.1442
     12 H          68.4228   92.8524   15.8693 H       1  UNL1        0.1442
     13 O          61.9856   90.0803   11.5684 O.3     1  UNL1       -0.4706
     14 C          61.3092   90.0622   10.2297 C.3     1  UNL1        0.2320
     15 C          61.0865   88.7599    9.5195 C.ar    1  UNL1        0.0212
     16 C          62.0614   87.6335    9.6950 C.ar    1  UNL1       -0.0007
     17 C          61.8386   86.3313    8.9848 C.ar    1  UNL1       -0.0002
     18 C          60.6409   86.1554    8.0990 C.ar    1  UNL1       -0.0000
     19 C          59.6660   87.2817    7.9235 C.ar    1  UNL1       -0.0002
     20 C          59.8888   88.5839    8.6337 C.ar    1  UNL1       -0.0007
@<TRIPOS>BOND
     1     1     2    1
     2     2     3   ar
     3     3     4   ar
     4     4     5   ar
     5     5     6   ar
     6     6     7   ar
     7     7    13    1
     8    13    14    1
     9    14    15    1
    10    15    16   ar
    11    16    17   ar
    12    17    18   ar
    13    18    19   ar
    14    19    20   ar
    15     7     8   ar
    16     8     9   ar
    17     9    10   ar
    18    10     2   ar
    19     9     4   ar
    20    20    15   ar
    21     1    11    1
    22     1    12    1
@<TRIPOS>MOLECULE
*****
 20 22 0 0 0
SMALL
GASTEIGER

@<TRIPOS>ATOM
      1 N          65.2192   91.6509   15.6204 N.pl3   1  UNL1       -0.3375
      2 C          64.5753   91.0920   14.3863 C.ar    1  UNL1        0.1567
      3 N          64.2865   91.8477   13.1232 N.ar    1  UNL1       -0.2245
      4 C          63.6398   90.9021   12.1549 C.ar    1  UNL1        0.0894
      5 C          63.1375   91.0881   10.7538 C.ar    1  UNL1        0.0228
      6 C          62.5244   89.9341   10.0174 C.ar    1  UNL1        0.0385
      7 C          62.4135   88.5940   10.6821 C.ar    1  UNL1        0.1397
      8 C          62.9158   88.4080   12.0832 C.ar    1  UNL1        0.0450
      9 C          63.5289   89.5620   12.8196 C.ar    1  UNL1        0.0527
     10 S          64.1071   89.6794   14.1987 S.2     1  UNL1       -0.0519
     11 H          65.4936   92.5960   15.6476 H       1  UNL1        0.1442
     12 H          65.3676   91.0726   16.4032 H       1  UNL1        0.1442
     13 O          61.8004   87.4400    9.9457 O.3     1  UNL1       -0.4706
     14 C          61.4080   86.1984   10.6903 C.3     1  UNL1        0.2320
     15 C          62.4160   85.1117   10.9204 C.ar    1  UNL1        0.0212
     16 C          62.7459   84.6784   12.3181 C.ar    1  UNL1       -0.0007
     17 C          63.7539   83.5917   12.5481 C.ar    1  UNL1       -0.0002
     18 C          64.4319   82.9382   11.3805 C.ar    1  UNL1       -0.0000
     19 C          64.1020   83.3715    9.9829 C.ar    1  UNL1       -0.0002
     20 C          63.0940   84.4582    9.7529 C.ar    1  UNL1       -0.0007
@<TRIPOS>BOND
     1     1     2    1
     2     2     3   ar
     3     3     4   ar
     4     4     5   ar
     5     5     6   ar
     6     6     7   ar
     7     7    13    1
     8    13    14    1
     9    14    15    1
    10    15    16   ar
    11    16    17   ar
    12    17    18   ar
    13    18    19   ar
    14    19    20   ar
    15     7     8   ar
    16     8     9   ar
    17     9    10   ar
    18    10     2   ar
    19     9     4   ar
    20    20    15   ar
    21     1    11    1
    22     1    12    1
@<TRIPOS>MOLECULE
*****
 20 22 0 0 0
SMALL
GASTEIGER

@<TRIPOS>ATOM
      1 N          58.6655   88.9590    6.6840 N.pl3   1  UNL1       -0.3375
      2 C          59.5474   88.5665    7.8321 C.ar    1  UNL1        0.1567
      3 N          60.4678   89.4779    8.5885 N.ar    1  UNL1       -0.2245
      4 C          61.1530   88.6684    9.6493 C.ar    1  UNL1        0.0894
      5 C          62.1652   89.0344   10.6940 C.ar    1  UNL1        0.0228
      6 C          62.6805   87.9887   11.6378 C.ar    1  UNL1        0.0385
      7 C          62.1836   86.5770   11.5370 C.ar    1  UNL1        0.1397
      8 C          61.1714   86.2110   10.4923 C.ar    1  UNL1        0.0450
      9 C          60.6561   87.2567    9.5484 C.ar    1  UNL1        0.0527
     10 S          59.6638   87.1938    8.4253 S.2     1  UNL1       -0.0519
     11 H          58.6585   89.8902    6.3645 H       1  UNL1        0.1442
     12 H          58.0936   88.2854    6.2499 H       1  UNL1        0.1442
     13 O          62.6990   85.5312   12.4809 O.3     1  UNL1       -0.4706
     14 C          63.3638   84.2984   11.9440 C.3     1  UNL1        0.2320
     15 C          62.9517   82.9457   12.4445 C.ar    1  UNL1        0.0212
     16 C          63.1469   81.7350   11.5808 C.ar    1  UNL1       -0.0007
     17 C          62.7349   80.3824   12.0813 C.ar    1  UNL1       -0.0002
     18 C          62.1277   80.2404   13.4455 C.ar    1  UNL1       -0.0000
     19 C          61.9325   81.4511   14.3093 C.ar    1  UNL1       -0.0002
     20 C          62.3445   82.8037   13.8088 C.ar    1  UNL1       -0.0007
@<TRIPOS>BOND
     1     1     2    1
     2     2     3   ar
     3     3     4   ar
     4     4     5   ar
     5     5     6   ar
     6     6     7   ar
     7     7    13    1
     8    13    14    1
     9    14    15    1
    10    15    16   ar
    11    16    17   ar
    12    17    18   ar
    13    18    19   ar
    14    19    20   ar
    15     7     8   ar
    16     8     9   ar
    17     9    10   ar
    18    10     2   ar
    19     9     4   ar
    20    20    15   ar
    21     1    11    1
    22     1    12    1
@<TRIPOS>MOLECULE
*****
 20 22 0 0 0
SMALL
GASTEIGER

@<TRIPOS>ATOM
      1 N          67.2147   94.3546   10.9693 N.pl3   1  UNL1       -0.3375
      2 C          66.2195   93.3364   11.4412 C.ar    1  UNL1        0.1567
      3 N          66.1446   92.7495   12.8196 N.ar    1  UNL1       -0.2245
      4 C          65.0032   91.7767   12.8479 C.ar    1  UNL1        0.0894
      5 C          64.4566   90.9021   13.9371 C.ar    1  UNL1        0.0228
      6 C          63.2793   90.0132   13.6653 C.ar    1  UNL1        0.0385
      7 C          62.6487   89.9989   12.3044 C.ar    1  UNL1        0.1397
      8 C          63.1953   90.8735   11.2153 C.ar    1  UNL1        0.0450
      9 C          64.3725   91.7624   11.4870 C.ar    1  UNL1        0.0527
     10 S          65.1242   92.7263   10.6177 S.2     1  UNL1       -0.0519
     11 H          67.8998   94.6968   11.5880 H       1  UNL1        0.1442
     12 H          67.1829   94.6805   10.0409 H       1  UNL1        0.1442
     13 O          61.4714   89.1099   12.0327 O.3     1  UNL1       -0.4706
     14 C          60.7771   89.1699   10.7045 C.3     1  UNL1        0.2320
     15 C          60.9001   88.0263    9.7415 C.ar    1  UNL1        0.0212
     16 C          59.7680   87.7034    8.8120 C.ar    1  UNL1       -0.0007
     17 C          59.8911   86.5599    7.8491 C.ar    1  UNL1       -0.0002
     18 C          61.1463   85.7393    7.8158 C.ar    1  UNL1       -0.0000
     19 C          62.2784   86.0622    8.7453 C.ar    1  UNL1       -0.0002
     20 C          62.1553   87.2057    9.7081 C.ar    1  UNL1       -0.0007
@<TRIPOS>BOND
     1     1     2    1
     2     2     3   ar
     3     3     4   ar
     4     4     5   ar
     5     5     6   ar
     6     6     7   ar
     7     7    13    1
     8    13    14    1
     9    14    15    1
    10    15    16   ar
    11    16    17   ar
    12    17    18   ar
    13    18    19   ar
    14    19    20   ar
    15     7     8   ar
    16     8     9   ar
    17     9    10   ar
    18    10     2   ar
    19     9     4   ar
    20    20    15   ar
    21     1    11    1
    22     1    12    1
@<TRIPOS>MOLECULE
*****
 20 22 0 0 0
SMALL
GASTEIGER

@<TRIPOS>ATOM
      1 N          63.7316   81.6316   14.1400 N.pl3   1  UNL1       -0.3375
      2 C          63.4708   82.6125   13.0355 C.ar    1  UNL1        0.1567
      3 N          63.8537   82.4411   11.5954 N.ar    1  UNL1       -0.2245
      4 C          63.4008   83.6596   10.8471 C.ar    1  UNL1        0.0894
      5 C          63.5064   84.0468    9.4018 C.ar    1  UNL1        0.0228
      6 C          62.9490   85.3585    8.9341 C.ar    1  UNL1        0.0385
      7 C          62.2862   86.2831    9.9118 C.ar    1  UNL1        0.1397
      8 C          62.1806   85.8959   11.3571 C.ar    1  UNL1        0.0450
      9 C          62.7379   84.5842   11.8247 C.ar    1  UNL1        0.0527
     10 S          62.7812   83.9370   13.1772 S.2     1  UNL1       -0.0519
     11 H          64.1940   80.7842   13.9468 H       1  UNL1        0.1442
     12 H          63.4404   81.8353   15.0582 H       1  UNL1        0.1442
     13 O          61.7288   87.5948    9.4440 O.3     1  UNL1       -0.4706
     14 C          61.3387   88.6431   10.4435 C.3     1  UNL1        0.2320
     15 C          62.3648   89.6105   10.9549 C.ar    1  UNL1        0.0212
     16 C          62.9401   89.4366   12.3292 C.ar    1  UNL1       -0.0007
     17 C          63.9661   90.4040   12.8406 C.ar    1  UNL1       -0.0002
     18 C          64.4167   91.5452   11.9777 C.ar    1  UNL1       -0.0000
     19 C          63.8413   91.7191   10.6035 C.ar    1  UNL1       -0.0002
     20 C          62.8153   90.7517   10.0921 C.ar    1  UNL1       -0.0007
@<TRIPOS>BOND
     1     1     2    1
     2     2     3   ar
     3     3     4   ar
     4     4     5   ar
     5     5     6   ar
     6     6     7   ar
     7     7    13    1
     8    13    14    1
     9    14    15    1
    10    15    16   ar
    11    16    17   ar
    12    17    18   ar
    13    18    19   ar
    14    19    20   ar
    15     7     8   ar
    16     8     9   ar
    17     9    10   ar
    18    10     2   ar
    19     9     4   ar
    20    20    15   ar
    21     1    11    1
    22     1    12    1
@<TRIPOS>MOLECULE
*****
 20 22 0 0 0
SMALL
GASTEIGER

@<TRIPOS>ATOM
      1 N          59.8694   87.6203    7.8890 N.pl3   1  UNL1       -0.3375
      2 C          60.7563   86.8084    8.7858 C.ar    1  UNL1        0.1567
      3 N          61.7496   85.7754    8.3431 N.ar    1  UNL1       -0.2245
      4 C          62.4128   85.2155    9.5665 C.ar    1  UNL1        0.0894
      5 C          63.4726   84.1689    9.7437 C.ar    1  UNL1        0.0228
      6 C          63.9489   83.8094   11.1198 C.ar    1  UNL1        0.0385
      7 C          63.3654   84.4965   12.3188 C.ar    1  UNL1        0.1397
      8 C          62.3056   85.5431   12.1416 C.ar    1  UNL1        0.0450
      9 C          61.8293   85.9026   10.7654 C.ar    1  UNL1        0.0527
     10 S          60.8055   86.8870   10.2830 S.2     1  UNL1       -0.0519
     11 H          59.9100   87.4962    6.9132 H       1  UNL1        0.1442
     12 H          59.2467   88.2772    8.2762 H       1  UNL1        0.1442
     13 O          63.8417   84.1369   13.6950 O.3     1  UNL1       -0.4706
     14 C          64.7614   85.0617   14.4358 C.3     1  UNL1        0.2320
     15 C          64.1976   86.2035   15.2288 C.ar    1  UNL1        0.0212
     16 C          63.4530   85.9361   16.5031 C.ar    1  UNL1       -0.0007
     17 C          62.8893   87.0778   17.2961 C.ar    1  UNL1       -0.0002
     18 C          63.0703   88.4869   16.8147 C.ar    1  UNL1       -0.0000
     19 C          63.8150   88.7542   15.5404 C.ar    1  UNL1       -0.0002
     20 C          64.3787   87.6125   14.7474 C.ar    1  UNL1       -0.0007
@<TRIPOS>BOND
     1     1     2    1
     2     2     3   ar
     3     3     4   ar
     4     4     5   ar
     5     5     6   ar
     6     6     7   ar
     7     7    13    1
     8    13    14    1
     9    14    15    1
    10    15    16   ar
    11    16    17   ar
    12    17    18   ar
    13    18    19   ar
    14    19    20   ar
    15     7     8   ar
    16     8     9   ar
    17     9    10   ar
    18    10     2   ar
    19     9     4   ar
    20    20    15   ar
    21     1    11    1
    22     1    12    1
@<TRIPOS>MOLECULE
*****
 20 22 0 0 0
SMALL
GASTEIGER

@<TRIPOS>ATOM
      1 N          58.8047   86.5011    7.3779 N.pl3   1  UNL1       -0.3375
      2 C          59.6868   87.2346    8.3443 C.ar    1  UNL1        0.1567
      3 N          59.8118   88.7242    8.4680 N.ar    1  UNL1       -0.2245
      4 C          60.8010   89.0175    9.5569 C.ar    1  UNL1        0.0894
      5 C          61.3217   90.3069   10.1192 C.ar    1  UNL1        0.0228
      6 C          62.3288   90.2879   11.2307 C.ar    1  UNL1        0.0385
      7 C          62.8151   88.9795   11.7799 C.ar    1  UNL1        0.1397
      8 C          62.2943   87.6901   11.2176 C.ar    1  UNL1        0.0450
      9 C          61.2873   87.7091   10.1061 C.ar    1  UNL1        0.0527
     10 S          60.5987   86.6072    9.3566 S.2     1  UNL1       -0.0519
     11 H          58.2388   87.0041    6.7486 H       1  UNL1        0.1442
     12 H          58.7917   85.5167    7.3729 H       1  UNL1        0.1442
     13 O          63.8221   88.9606   12.8914 O.3     1  UNL1       -0.4706
     14 C          63.7670   90.0002   13.9712 C.3     1  UNL1        0.2320
     15 C          64.7201   91.1583   13.9468 C.ar    1  UNL1        0.0212
     16 C          65.0048   91.8681   12.6564 C.ar    1  UNL1       -0.0007
     17 C          65.9579   93.0262   12.6320 C.ar    1  UNL1       -0.0002
     18 C          66.6261   93.4744   13.8979 C.ar    1  UNL1       -0.0000
     19 C          66.3413   92.7646   15.1882 C.ar    1  UNL1       -0.0002
     20 C          65.3883   91.6066   15.2127 C.ar    1  UNL1       -0.0007
@<TRIPOS>BOND
     1     1     2    1
     2     2     3   ar
     3     3     4   ar
     4     4     5   ar
     5     5     6   ar
     6     6     7   ar
     7     7    13    1
     8    13    14    1
     9    14    15    1
    10    15    16   ar
    11    16    17   ar
    12    17    18   ar
    13    18    19   ar
    14    19    20   ar
    15     7     8   ar
    16     8     9   ar
    17     9    10   ar
    18    10     2   ar
    19     9     4   ar
    20    20    15   ar
    21     1    11    1
    22     1    12    1
@<TRIPOS>MOLECULE
*****
 20 22 0 0 0
SMALL
GASTEIGER

@<TRIPOS>ATOM
      1 N          65.6197   91.9012   15.6416 N.pl3   1  UNL1       -0.3375
      2 C          64.8331   91.5347   14.4181 C.ar    1  UNL1        0.1567
      3 N          65.0438   92.0822   13.0376 N.ar    1  UNL1       -0.2245
      4 C          64.0386   91.4422   12.1266 C.ar    1  UNL1        0.0894
      5 C          63.7734   91.5963   10.6583 C.ar    1  UNL1        0.0228
      6 C          62.6761   90.8074   10.0075 C.ar    1  UNL1        0.0385
      7 C          61.8441   89.8643   10.8250 C.ar    1  UNL1        0.1397
      8 C          62.1093   89.7102   12.2933 C.ar    1  UNL1        0.0450
      9 C          63.2065   90.4991   12.9441 C.ar    1  UNL1        0.0527
     10 S          63.6976   90.5563   14.3603 S.2     1  UNL1       -0.0519
     11 H          66.3508   92.5575   15.5784 H       1  UNL1        0.1442
     12 H          65.4049   91.4854   16.5077 H       1  UNL1        0.1442
     13 O          60.7468   89.0754   10.1742 O.3     1  UNL1       -0.4706
     14 C          60.6811   87.5883   10.3589 C.3     1  UNL1        0.2320
     15 C          61.1881   86.6755    9.2819 C.ar    1  UNL1        0.0212
     16 C          62.5839   86.1314    9.3555 C.ar    1  UNL1       -0.0007
     17 C          63.0908   85.2187    8.2785 C.ar    1  UNL1       -0.0002
     18 C          62.2018   84.8502    7.1278 C.ar    1  UNL1       -0.0000
     19 C          60.8060   85.3943    7.0543 C.ar    1  UNL1       -0.0002
     20 C          60.2991   86.3070    8.1313 C.ar    1  UNL1       -0.0007
@<TRIPOS>BOND
     1     1     2    1
     2     2     3   ar
     3     3     4   ar
     4     4     5   ar
     5     5     6   ar
     6     6     7   ar
     7     7    13    1
     8    13    14    1
     9    14    15    1
    10    15    16   ar
    11    16    17   ar
    12    17    18   ar
    13    18    19   ar
    14    19    20   ar
    15     7     8   ar
    16     8     9   ar
    17     9    10   ar
    18    10     2   ar
    19     9     4   ar
    20    20    15   ar
    21     1    11    1
    22     1    12    1
