@<TRIPOS>MOLECULE
*****
 32 35 0 0 0
SMALL
GASTEIGER

@<TRIPOS>ATOM
      1 C          61.5261   86.8141    9.2361 C.ar    1  UNL1        0.1009
      2 C          61.9053   85.6743    8.3378 C.ar    1  UNL1        0.1103
      3 N          62.7043   84.5261    8.8796 N.ar    1  UNL1       -0.2422
      4 C          63.1240   84.5178   10.3196 C.ar    1  UNL1        0.0931
      5 C          63.9230   83.3696   10.8613 C.ar    1  UNL1        0.0765
      6 CL         64.3022   82.2298    9.9630 Cl      1  UNL1       -0.0806
      7 C          64.3427   83.3613   12.3013 C.ar    1  UNL1        0.0272
      8 C          63.9635   84.5012   13.1997 C.ar    1  UNL1        0.0459
      9 C          63.1645   85.6493   12.6580 C.ar    1  UNL1        0.0171
     10 C          62.7448   85.6576   11.2179 C.ar    1  UNL1        0.0338
     11 C          61.9459   86.8057   10.6762 C.ar    1  UNL1        0.0611
     12 N          59.9282   89.1103    8.1527 N.1     1  UNL1       -0.1907
     13 C          60.7272   87.9622    8.6944 C.1     1  UNL1        0.1032
     14 N          64.3832   84.4928   14.6397 N.pl3   1  UNL1       -0.3278
     15 H          65.3310   84.3689   14.8755 H       1  UNL1        0.1472
     16 C          63.3589   84.6732   15.7206 C.3     1  UNL1        0.1332
     17 C          63.2075   86.0040   16.3959 C.ar    1  UNL1        0.0742
     18 C          62.7168   86.2321   17.7949 C.ar    1  UNL1        0.1148
     19 N          62.7263   87.7095   18.0544 N.ar    1  UNL1       -0.2228
     20 C          63.2228   88.3944   16.8157 C.ar    1  UNL1        0.1748
     21 N          63.5203   87.3404   15.7907 N.ar    1  UNL1       -0.3369
     22 H          63.8609   87.4980   14.8806 H       1  UNL1        0.1672
     23 N          61.5666   87.9456   11.5746 N.pl3   1  UNL1       -0.3119
     24 H          60.7271   87.9098   12.0876 H       1  UNL1        0.1522
     25 C          62.4666   89.1400   11.6913 C.ar    1  UNL1        0.0493
     26 C          62.5685   90.1159   10.5567 C.ar    1  UNL1        0.0170
     27 C          63.4685   91.3103   10.6734 C.ar    1  UNL1        0.0318
     28 C          64.2664   91.5287   11.9247 C.ar    1  UNL1        0.1507
     29 F          65.1663   92.7231   12.0414 F       1  UNL1       -0.2033
     30 C          64.1644   90.5528   13.0592 C.ar    1  UNL1        0.0863
     31 CL         64.9623   90.7712   14.3105 Cl      1  UNL1       -0.0799
     32 C          63.2645   89.3584   12.9425 C.ar    1  UNL1        0.0283
@<TRIPOS>BOND
     1    12    13    3
     2    13     1    1
     3     1     2   ar
     4     2     3   ar
     5     3     4   ar
     6     4     5   ar
     7     5     6    1
     8     5     7   ar
     9     7     8   ar
    10     8    14    1
    11    14    16    1
    12    16    17    1
    13    17    18   ar
    14    18    19   ar
    15    19    20   ar
    16    20    21   ar
    17     8     9   ar
    18     9    10   ar
    19    10    11   ar
    20    11    23    1
    21    23    25    1
    22    25    26   ar
    23    26    27   ar
    24    27    28   ar
    25    28    29    1
    26    28    30   ar
    27    30    31    1
    28    30    32   ar
    29    11     1   ar
    30    32    25   ar
    31    10     4   ar
    32    21    17   ar
    33    14    15    1
    34    21    22    1
    35    23    24    1
@<TRIPOS>MOLECULE
*****
 32 35 0 0 0
SMALL
GASTEIGER

@<TRIPOS>ATOM
      1 C          60.6909   86.4756    8.2429 C.ar    1  UNL1        0.1009
      2 C          59.4570   87.3277    8.2792 C.ar    1  UNL1        0.1103
      3 N          59.3477   88.4473    9.2714 N.ar    1  UNL1       -0.2422
      4 C          60.4722   88.7148   10.2273 C.ar    1  UNL1        0.0931
      5 C          60.3629   89.8345   11.2196 C.ar    1  UNL1        0.0765
      6 CL         59.1290   90.6866   11.2559 Cl      1  UNL1       -0.0806
      7 C          61.4874   90.1020   12.1754 C.ar    1  UNL1        0.0272
      8 C          62.7214   89.2498   12.1392 C.ar    1  UNL1        0.0459
      9 C          62.8308   88.1302   11.1469 C.ar    1  UNL1        0.0171
     10 C          61.7061   87.8627   10.1910 C.ar    1  UNL1        0.0338
     11 C          61.8155   86.7431    9.1988 C.ar    1  UNL1        0.0611
     12 N          60.9096   84.2364    6.2585 N.1     1  UNL1       -0.1907
     13 C          60.8003   85.3560    7.2507 C.1     1  UNL1        0.1032
     14 N          63.8460   89.5174   13.0951 N.pl3   1  UNL1       -0.3278
     15 H          64.4163   88.7767   13.4038 H       1  UNL1        0.1472
     16 C          64.1016   90.9135   13.5805 C.3     1  UNL1        0.1332
     17 C          64.9825   91.8335   12.7884 C.ar    1  UNL1        0.0742
     18 C          66.1539   92.6059   13.3186 C.ar    1  UNL1        0.1148
     19 N          66.7420   93.3924   12.1848 N.ar    1  UNL1       -0.2228
     20 C          65.9340   93.1061   10.9538 C.ar    1  UNL1        0.1748
     21 N          64.8465   92.1426   11.3269 N.ar    1  UNL1       -0.3369
     22 H          64.1635   91.7773   10.7192 H       1  UNL1        0.1672
     23 N          63.0495   85.8910    9.1625 N.pl3   1  UNL1       -0.3119
     24 H          63.7799   86.1087    8.5393 H       1  UNL1        0.1522
     25 C          63.1705   84.7072   10.0757 C.ar    1  UNL1        0.0493
     26 C          63.7998   83.4389    9.5801 C.ar    1  UNL1        0.0170
     27 C          63.9209   82.2551   10.4934 C.ar    1  UNL1        0.0318
     28 C          63.4127   82.3396   11.9022 C.ar    1  UNL1        0.1507
     29 F          63.5337   81.1558   12.8154 F       1  UNL1       -0.2033
     30 C          62.7834   83.6078   12.3977 C.ar    1  UNL1        0.0863
     31 CL         62.2752   83.6923   13.8065 Cl      1  UNL1       -0.0799
     32 C          62.6624   84.7916   11.4845 C.ar    1  UNL1        0.0283
@<TRIPOS>BOND
     1    12    13    3
     2    13     1    1
     3     1     2   ar
     4     2     3   ar
     5     3     4   ar
     6     4     5   ar
     7     5     6    1
     8     5     7   ar
     9     7     8   ar
    10     8    14    1
    11    14    16    1
    12    16    17    1
    13    17    18   ar
    14    18    19   ar
    15    19    20   ar
    16    20    21   ar
    17     8     9   ar
    18     9    10   ar
    19    10    11   ar
    20    11    23    1
    21    23    25    1
    22    25    26   ar
    23    26    27   ar
    24    27    28   ar
    25    28    29    1
    26    28    30   ar
    27    30    31    1
    28    30    32   ar
    29    11     1   ar
    30    32    25   ar
    31    10     4   ar
    32    21    17   ar
    33    14    15    1
    34    21    22    1
    35    23    24    1
@<TRIPOS>MOLECULE
*****
 32 35 0 0 0
SMALL
GASTEIGER

@<TRIPOS>ATOM
      1 C          60.7046   86.5402    8.3451 C.ar    1  UNL1        0.1009
      2 C          59.4870   87.4141    8.4060 C.ar    1  UNL1        0.1103
      3 N          59.4072   88.5199    9.4164 N.ar    1  UNL1       -0.2422
      4 C          60.5451   88.7519   10.3658 C.ar    1  UNL1        0.0931
      5 C          60.4653   89.8578   11.3761 C.ar    1  UNL1        0.0765
      6 CL         59.2477   90.7316   11.4370 Cl      1  UNL1       -0.0806
      7 C          61.6031   90.0898   12.3255 C.ar    1  UNL1        0.0272
      8 C          62.8208   89.2159   12.2646 C.ar    1  UNL1        0.0459
      9 C          62.9006   88.1101   11.2543 C.ar    1  UNL1        0.0171
     10 C          61.7627   87.8781   10.3049 C.ar    1  UNL1        0.0338
     11 C          61.8424   86.7722    9.2946 C.ar    1  UNL1        0.0611
     12 N          60.8641   84.3285    6.3245 N.1     1  UNL1       -0.1907
     13 C          60.7844   85.4344    7.3348 C.1     1  UNL1        0.1032
     14 N          63.9587   89.4479   13.2141 N.pl3   1  UNL1       -0.3278
     15 H          64.8819   89.4908   12.8748 H       1  UNL1        0.1472
     16 C          63.6899   89.6145   14.6804 C.3     1  UNL1        0.1332
     17 C          63.5313   88.4068   15.5558 C.ar    1  UNL1        0.0742
     18 C          63.0186   88.4008   16.9654 C.ar    1  UNL1        0.1148
     19 N          63.0280   86.9833   17.4561 N.ar    1  UNL1       -0.2228
     20 C          63.5464   86.1133   16.3496 C.ar    1  UNL1        0.1748
     21 N          63.8575   86.9930   15.1751 N.ar    1  UNL1       -0.3369
     22 H          64.2133   86.6949   14.3069 H       1  UNL1        0.1672
     23 N          63.0601   85.8984    9.2337 N.pl3   1  UNL1       -0.3119
     24 H          63.7844   86.1066    8.6002 H       1  UNL1        0.1522
     25 C          63.1744   84.7072   10.1381 C.ar    1  UNL1        0.0493
     26 C          63.7848   83.4349    9.6293 C.ar    1  UNL1        0.0170
     27 C          63.8990   82.2437   10.5337 C.ar    1  UNL1        0.0318
     28 C          63.4028   82.3248   11.9470 C.ar    1  UNL1        0.1507
     29 F          63.5170   81.1336   12.8515 F       1  UNL1       -0.2033
     30 C          62.7924   83.5970   12.4558 C.ar    1  UNL1        0.0863
     31 CL         62.2962   83.6780   13.8691 Cl      1  UNL1       -0.0799
     32 C          62.6782   84.7882   11.5513 C.ar    1  UNL1        0.0283
@<TRIPOS>BOND
     1    12    13    3
     2    13     1    1
     3     1     2   ar
     4     2     3   ar
     5     3     4   ar
     6     4     5   ar
     7     5     6    1
     8     5     7   ar
     9     7     8   ar
    10     8    14    1
    11    14    16    1
    12    16    17    1
    13    17    18   ar
    14    18    19   ar
    15    19    20   ar
    16    20    21   ar
    17     8     9   ar
    18     9    10   ar
    19    10    11   ar
    20    11    23    1
    21    23    25    1
    22    25    26   ar
    23    26    27   ar
    24    27    28   ar
    25    28    29    1
    26    28    30   ar
    27    30    31    1
    28    30    32   ar
    29    11     1   ar
    30    32    25   ar
    31    10     4   ar
    32    21    17   ar
    33    14    15    1
    34    21    22    1
    35    23    24    1
@<TRIPOS>MOLECULE
*****
 32 35 0 0 0
SMALL
GASTEIGER

@<TRIPOS>ATOM
      1 C          62.8799   83.0653   13.6660 C.ar    1  UNL1        0.1009
      2 C          62.3915   82.8751   15.0714 C.ar    1  UNL1        0.1103
      3 N          62.4677   84.0079   16.0517 N.ar    1  UNL1       -0.2422
      4 C          63.0324   85.3308   15.6266 C.ar    1  UNL1        0.0931
      5 C          63.1087   86.4636   16.6069 C.ar    1  UNL1        0.0765
      6 CL         62.6202   86.2734   18.0123 Cl      1  UNL1       -0.0806
      7 C          63.6734   87.7866   16.1818 C.ar    1  UNL1        0.0272
      8 C          64.1619   87.9769   14.7764 C.ar    1  UNL1        0.0459
      9 C          64.0857   86.8441   13.7961 C.ar    1  UNL1        0.0171
     10 C          63.5209   85.5211   14.2212 C.ar    1  UNL1        0.0338
     11 C          63.4447   84.3883   13.2409 C.ar    1  UNL1        0.0611
     12 N          62.7275   80.7997   11.7054 N.1     1  UNL1       -0.1907
     13 C          62.8037   81.9325   12.6857 C.1     1  UNL1        0.1032
     14 N          64.7266   89.2999   14.3513 N.pl3   1  UNL1       -0.3278
     15 H          65.7014   89.4198   14.2824 H       1  UNL1        0.1472
     16 C          63.8062   90.4402   14.0311 C.3     1  UNL1        0.1332
     17 C          62.9496   90.3900   12.8008 C.ar    1  UNL1        0.0742
     18 C          63.3279   90.8996   11.4417 C.ar    1  UNL1        0.1148
     19 N          62.1764   90.6459   10.5144 N.ar    1  UNL1       -0.2228
     20 C          61.0865   89.9794   11.3006 C.ar    1  UNL1        0.1748
     21 N          61.5644   89.8212   12.7136 N.ar    1  UNL1       -0.3369
     22 H          61.0578   89.4154   13.4538 H       1  UNL1        0.1672
     23 N          63.9332   84.5785   11.8355 N.pl3   1  UNL1       -0.3119
     24 H          64.8683   84.3719   11.6071 H       1  UNL1        0.1522
     25 C          62.9969   85.0836   10.7779 C.ar    1  UNL1        0.0493
     26 C          61.8393   85.9589   11.1571 C.ar    1  UNL1        0.0170
     27 C          60.9030   86.4640   10.0996 C.ar    1  UNL1        0.0318
     28 C          61.1244   86.0937    8.6629 C.ar    1  UNL1        0.1507
     29 F          60.1882   86.5988    7.6054 F       1  UNL1       -0.2033
     30 C          62.2821   85.2185    8.2838 C.ar    1  UNL1        0.0863
     31 CL         62.5035   84.8482    6.8471 Cl      1  UNL1       -0.0799
     32 C          63.2183   84.7134    9.3413 C.ar    1  UNL1        0.0283
@<TRIPOS>BOND
     1    12    13    3
     2    13     1    1
     3     1     2   ar
     4     2     3   ar
     5     3     4   ar
     6     4     5   ar
     7     5     6    1
     8     5     7   ar
     9     7     8   ar
    10     8    14    1
    11    14    16    1
    12    16    17    1
    13    17    18   ar
    14    18    19   ar
    15    19    20   ar
    16    20    21   ar
    17     8     9   ar
    18     9    10   ar
    19    10    11   ar
    20    11    23    1
    21    23    25    1
    22    25    26   ar
    23    26    27   ar
    24    27    28   ar
    25    28    29    1
    26    28    30   ar
    27    30    31    1
    28    30    32   ar
    29    11     1   ar
    30    32    25   ar
    31    10     4   ar
    32    21    17   ar
    33    14    15    1
    34    21    22    1
    35    23    24    1
@<TRIPOS>MOLECULE
*****
 32 35 0 0 0
SMALL
GASTEIGER

@<TRIPOS>ATOM
      1 C          61.2627   89.1812    9.7777 C.ar    1  UNL1        0.1009
      2 C          61.7835   90.5810    9.6395 C.ar    1  UNL1        0.1103
      3 N          62.7607   91.1201   10.6417 N.ar    1  UNL1       -0.2422
      4 C          63.2172   90.2593   11.7821 C.ar    1  UNL1        0.0931
      5 C          64.1944   90.7983   12.7844 C.ar    1  UNL1        0.0765
      6 CL         64.7151   92.1982   12.6462 Cl      1  UNL1       -0.0806
      7 C          64.6509   89.9375   13.9248 C.ar    1  UNL1        0.0272
      8 C          64.1301   88.5376   14.0630 C.ar    1  UNL1        0.0459
      9 C          63.1529   87.9985   13.0608 C.ar    1  UNL1        0.0171
     10 C          62.6964   88.8594   11.9203 C.ar    1  UNL1        0.0338
     11 C          61.7192   88.3203   10.9181 C.ar    1  UNL1        0.0611
     12 N          59.3083   88.1030    7.7732 N.1     1  UNL1       -0.1907
     13 C          60.2855   88.6421    8.7755 C.1     1  UNL1        0.1032
     14 N          64.5866   87.6767   15.2034 N.pl3   1  UNL1       -0.3278
     15 H          64.5958   88.0374   16.1194 H       1  UNL1        0.1472
     16 C          65.0291   86.2663   14.9482 C.3     1  UNL1        0.1332
     17 C          64.0654   85.1324   15.1360 C.ar    1  UNL1        0.0742
     18 C          64.4116   83.6728   15.1419 C.ar    1  UNL1        0.1148
     19 N          63.1465   82.8972   15.3605 N.ar    1  UNL1       -0.2228
     20 C          62.0183   83.8774   15.4896 C.ar    1  UNL1        0.1748
     21 N          62.5863   85.2587   15.3508 N.ar    1  UNL1       -0.3369
     22 H          62.0775   86.1006   15.3933 H       1  UNL1        0.1672
     23 N          61.1985   86.9204   11.0563 N.pl3   1  UNL1       -0.3119
     24 H          60.2894   86.7651   11.4010 H       1  UNL1        0.1522
     25 C          62.0627   85.7571   10.6693 C.ar    1  UNL1        0.0493
     26 C          62.6278   85.6712    9.2824 C.ar    1  UNL1        0.0170
     27 C          63.4921   84.5079    8.8954 C.ar    1  UNL1        0.0318
     28 C          63.7913   83.4305    9.8954 C.ar    1  UNL1        0.1507
     29 F          64.6556   82.2672    9.5084 F       1  UNL1       -0.2033
     30 C          63.2263   83.5164   11.2822 C.ar    1  UNL1        0.0863
     31 CL         63.5256   82.4391   12.2821 Cl      1  UNL1       -0.0799
     32 C          62.3620   84.6797   11.6692 C.ar    1  UNL1        0.0283
@<TRIPOS>BOND
     1    12    13    3
     2    13     1    1
     3     1     2   ar
     4     2     3   ar
     5     3     4   ar
     6     4     5   ar
     7     5     6    1
     8     5     7   ar
     9     7     8   ar
    10     8    14    1
    11    14    16    1
    12    16    17    1
    13    17    18   ar
    14    18    19   ar
    15    19    20   ar
    16    20    21   ar
    17     8     9   ar
    18     9    10   ar
    19    10    11   ar
    20    11    23    1
    21    23    25    1
    22    25    26   ar
    23    26    27   ar
    24    27    28   ar
    25    28    29    1
    26    28    30   ar
    27    30    31    1
    28    30    32   ar
    29    11     1   ar
    30    32    25   ar
    31    10     4   ar
    32    21    17   ar
    33    14    15    1
    34    21    22    1
    35    23    24    1
@<TRIPOS>MOLECULE
*****
 32 35 0 0 0
SMALL
GASTEIGER

@<TRIPOS>ATOM
      1 C          62.9125   83.2100   13.9730 C.ar    1  UNL1        0.1009
      2 C          62.4455   83.1161   15.3953 C.ar    1  UNL1        0.1103
      3 N          62.5205   84.3176   16.2902 N.ar    1  UNL1       -0.2422
      4 C          63.0626   85.6129   15.7627 C.ar    1  UNL1        0.0931
      5 C          63.1376   86.8144   16.6576 C.ar    1  UNL1        0.0765
      6 CL         62.6706   86.7206   18.0799 Cl      1  UNL1       -0.0806
      7 C          63.6797   88.1098   16.1302 C.ar    1  UNL1        0.0272
      8 C          64.1467   88.2037   14.7078 C.ar    1  UNL1        0.0459
      9 C          64.0717   87.0022   13.8129 C.ar    1  UNL1        0.0171
     10 C          63.5296   85.7068   14.3404 C.ar    1  UNL1        0.0338
     11 C          63.4546   84.5053   13.4455 C.ar    1  UNL1        0.0611
     12 N          62.7625   80.8070   12.1833 N.1     1  UNL1       -0.1907
     13 C          62.8375   82.0085   13.0781 C.1     1  UNL1        0.1032
     14 N          64.6888   89.4990   14.1803 N.pl3   1  UNL1       -0.3278
     15 H          65.0270   89.5516   13.2572 H       1  UNL1        0.1472
     16 C          64.7155   90.7143   15.0593 C.3     1  UNL1        0.1332
     17 C          65.8714   91.6674   14.9863 C.ar    1  UNL1        0.0742
     18 C          66.8939   91.7310   13.8906 C.ar    1  UNL1        0.1148
     19 N          67.8622   92.8272   14.2232 N.ar    1  UNL1       -0.2228
     20 C          67.4381   93.4412   15.5245 C.ar    1  UNL1        0.1748
     21 N          66.2077   92.7244   15.9961 N.ar    1  UNL1       -0.3369
     22 H          65.7085   92.9143   16.8231 H       1  UNL1        0.1672
     23 N          63.9216   84.5992   12.0232 N.pl3   1  UNL1       -0.3119
     24 H          64.8383   84.3285   11.7871 H       1  UNL1        0.1522
     25 C          62.9920   85.1055   10.9604 C.ar    1  UNL1        0.0493
     26 C          61.8195   85.9626   11.3358 C.ar    1  UNL1        0.0170
     27 C          60.8899   86.4689   10.2730 C.ar    1  UNL1        0.0318
     28 C          61.1328   86.1182    8.8349 C.ar    1  UNL1        0.1507
     29 F          60.2031   86.6246    7.7722 F       1  UNL1       -0.2033
     30 C          62.3052   85.2612    8.4596 C.ar    1  UNL1        0.0863
     31 CL         62.5481   84.9106    7.0215 Cl      1  UNL1       -0.0799
     32 C          63.2348   84.7549    9.5224 C.ar    1  UNL1        0.0283
@<TRIPOS>BOND
     1    12    13    3
     2    13     1    1
     3     1     2   ar
     4     2     3   ar
     5     3     4   ar
     6     4     5   ar
     7     5     6    1
     8     5     7   ar
     9     7     8   ar
    10     8    14    1
    11    14    16    1
    12    16    17    1
    13    17    18   ar
    14    18    19   ar
    15    19    20   ar
    16    20    21   ar
    17     8     9   ar
    18     9    10   ar
    19    10    11   ar
    20    11    23    1
    21    23    25    1
    22    25    26   ar
    23    26    27   ar
    24    27    28   ar
    25    28    29    1
    26    28    30   ar
    27    30    31    1
    28    30    32   ar
    29    11     1   ar
    30    32    25   ar
    31    10     4   ar
    32    21    17   ar
    33    14    15    1
    34    21    22    1
    35    23    24    1
@<TRIPOS>MOLECULE
*****
 32 35 0 0 0
SMALL
GASTEIGER

@<TRIPOS>ATOM
      1 C          62.8859   82.9615   13.5047 C.ar    1  UNL1        0.1009
      2 C          62.4078   82.7342   14.9082 C.ar    1  UNL1        0.1103
      3 N          62.4843   83.8431   15.9154 N.ar    1  UNL1       -0.2422
      4 C          63.0390   85.1793   15.5191 C.ar    1  UNL1        0.0931
      5 C          63.1155   86.2882   16.5264 C.ar    1  UNL1        0.0765
      6 CL         62.6374   86.0610   17.9298 Cl      1  UNL1       -0.0806
      7 C          63.6701   87.6243   16.1301 C.ar    1  UNL1        0.0272
      8 C          64.1483   87.8516   14.7266 C.ar    1  UNL1        0.0459
      9 C          64.0717   86.7427   13.7194 C.ar    1  UNL1        0.0171
     10 C          63.5171   85.4065   14.1157 C.ar    1  UNL1        0.0338
     11 C          63.4405   84.2976   13.1085 C.ar    1  UNL1        0.0611
     12 N          62.7328   80.7436   11.4903 N.1     1  UNL1       -0.1907
     13 C          62.8094   81.8525   12.4975 C.1     1  UNL1        0.1032
     14 N          64.7029   89.1878   14.3303 N.pl3   1  UNL1       -0.3278
     15 H          65.6610   89.3787   14.4519 H       1  UNL1        0.1472
     16 C          63.7977   90.2330   13.7487 C.3     1  UNL1        0.1332
     17 C          64.3308   91.2130   12.7460 C.ar    1  UNL1        0.0742
     18 C          63.8899   91.3413   11.3180 C.ar    1  UNL1        0.1148
     19 N          64.6849   92.4444   10.6847 N.ar    1  UNL1       -0.2228
     20 C          65.6171   92.9979   11.7214 C.ar    1  UNL1        0.1748
     21 N          65.3982   92.2369   12.9953 N.ar    1  UNL1       -0.3369
     22 H          65.8720   92.3836   13.8457 H       1  UNL1        0.1672
     23 N          63.9187   84.5249   11.7050 N.pl3   1  UNL1       -0.3119
     24 H          64.8353   84.2718   11.4501 H       1  UNL1        0.1522
     25 C          63.0001   85.1378   10.6898 C.ar    1  UNL1        0.0493
     26 C          63.1740   84.8220    9.2337 C.ar    1  UNL1        0.0170
     27 C          62.2555   85.4350    8.2185 C.ar    1  UNL1        0.0318
     28 C          61.1631   86.3637    8.6594 C.ar    1  UNL1        0.1507
     29 F          60.2446   86.9767    7.6442 F       1  UNL1       -0.2033
     30 C          60.9894   86.6795   10.1154 C.ar    1  UNL1        0.0863
     31 CL         59.8970   87.6082   10.5563 Cl      1  UNL1       -0.0799
     32 C          61.9079   86.0665   11.1306 C.ar    1  UNL1        0.0283
@<TRIPOS>BOND
     1    12    13    3
     2    13     1    1
     3     1     2   ar
     4     2     3   ar
     5     3     4   ar
     6     4     5   ar
     7     5     6    1
     8     5     7   ar
     9     7     8   ar
    10     8    14    1
    11    14    16    1
    12    16    17    1
    13    17    18   ar
    14    18    19   ar
    15    19    20   ar
    16    20    21   ar
    17     8     9   ar
    18     9    10   ar
    19    10    11   ar
    20    11    23    1
    21    23    25    1
    22    25    26   ar
    23    26    27   ar
    24    27    28   ar
    25    28    29    1
    26    28    30   ar
    27    30    31    1
    28    30    32   ar
    29    11     1   ar
    30    32    25   ar
    31    10     4   ar
    32    21    17   ar
    33    14    15    1
    34    21    22    1
    35    23    24    1
@<TRIPOS>MOLECULE
*****
 32 35 0 0 0
SMALL
GASTEIGER

@<TRIPOS>ATOM
      1 C          62.4259   85.1895   11.5758 C.ar    1  UNL1        0.1009
      2 C          61.4588   85.4652   10.4629 C.ar    1  UNL1        0.1103
      3 N          61.1578   86.8795   10.0640 N.ar    1  UNL1       -0.2422
      4 C          61.8238   88.0181   10.7780 C.ar    1  UNL1        0.0931
      5 C          61.5227   89.4324   10.3791 C.ar    1  UNL1        0.0765
      6 CL         60.5557   89.7081    9.2661 Cl      1  UNL1       -0.0806
      7 C          62.1887   90.5710   11.0932 C.ar    1  UNL1        0.0272
      8 C          63.1559   90.2953   12.2062 C.ar    1  UNL1        0.0459
      9 C          63.4569   88.8810   12.6051 C.ar    1  UNL1        0.0171
     10 C          62.7908   87.7424   11.8910 C.ar    1  UNL1        0.0338
     11 C          63.0919   86.3281   12.2899 C.ar    1  UNL1        0.0611
     12 N          63.0279   82.3609   12.3736 N.1     1  UNL1       -0.1907
     13 C          62.7269   83.7752   11.9747 C.1     1  UNL1        0.1032
     14 N          63.8219   91.4340   12.9203 N.pl3   1  UNL1       -0.3278
     15 H          63.7240   92.3528   12.5805 H       1  UNL1        0.1472
     16 C          64.6371   91.1727   14.1520 C.3     1  UNL1        0.1332
     17 C          65.8966   91.9498   14.3967 C.ar    1  UNL1        0.0742
     18 C          67.1436   91.8925   13.5650 C.ar    1  UNL1        0.1148
     19 N          68.1479   92.8279   14.1702 N.ar    1  UNL1       -0.2228
     20 C          67.5215   93.4634   15.3760 C.ar    1  UNL1        0.1748
     21 N          66.1301   92.9207   15.5159 N.ar    1  UNL1       -0.3369
     22 H          65.4837   93.1597   16.2190 H       1  UNL1        0.1672
     23 N          64.0590   86.0524   13.4029 N.pl3   1  UNL1       -0.3119
     24 H          64.9574   85.7049   13.1996 H       1  UNL1        0.1522
     25 C          63.6572   86.3063   14.8256 C.ar    1  UNL1        0.0493
     26 C          63.2526   85.1615   15.7064 C.ar    1  UNL1        0.0170
     27 C          62.8508   85.4154   17.1291 C.ar    1  UNL1        0.0318
     28 C          62.8537   86.8141   17.6711 C.ar    1  UNL1        0.1507
     29 F          62.4519   87.0680   19.0938 F       1  UNL1       -0.2033
     30 C          63.2584   87.9588   16.7903 C.ar    1  UNL1        0.0863
     31 CL         63.2613   89.3576   17.3323 Cl      1  UNL1       -0.0799
     32 C          63.6601   87.7049   15.3676 C.ar    1  UNL1        0.0283
@<TRIPOS>BOND
     1    12    13    3
     2    13     1    1
     3     1     2   ar
     4     2     3   ar
     5     3     4   ar
     6     4     5   ar
     7     5     6    1
     8     5     7   ar
     9     7     8   ar
    10     8    14    1
    11    14    16    1
    12    16    17    1
    13    17    18   ar
    14    18    19   ar
    15    19    20   ar
    16    20    21   ar
    17     8     9   ar
    18     9    10   ar
    19    10    11   ar
    20    11    23    1
    21    23    25    1
    22    25    26   ar
    23    26    27   ar
    24    27    28   ar
    25    28    29    1
    26    28    30   ar
    27    30    31    1
    28    30    32   ar
    29    11     1   ar
    30    32    25   ar
    31    10     4   ar
    32    21    17   ar
    33    14    15    1
    34    21    22    1
    35    23    24    1
@<TRIPOS>MOLECULE
*****
 32 35 0 0 0
SMALL
GASTEIGER

@<TRIPOS>ATOM
      1 C          60.2324   88.9360    9.9048 C.ar    1  UNL1        0.1009
      2 C          59.7910   88.6383    8.5025 C.ar    1  UNL1        0.1103
      3 N          60.3285   87.4348    7.7866 N.ar    1  UNL1       -0.2422
      4 C          61.3074   86.5289    8.4729 C.ar    1  UNL1        0.0931
      5 C          61.8449   85.3254    7.7569 C.ar    1  UNL1        0.0765
      6 CL         61.4035   85.0277    6.3546 Cl      1  UNL1       -0.0806
      7 C          62.8239   84.4196    8.4432 C.ar    1  UNL1        0.0272
      8 C          63.2654   84.7173    9.8456 C.ar    1  UNL1        0.0459
      9 C          62.7279   85.9208   10.5616 C.ar    1  UNL1        0.0171
     10 C          61.7489   86.8267    9.8752 C.ar    1  UNL1        0.0338
     11 C          61.2114   88.0302   10.5911 C.ar    1  UNL1        0.0611
     12 N          59.1574   91.3431   11.3367 N.1     1  UNL1       -0.1907
     13 C          59.6949   90.1395   10.6208 C.1     1  UNL1        0.1032
     14 N          64.2444   83.8115   10.5319 N.pl3   1  UNL1       -0.3278
     15 H          65.1927   83.8210   10.2676 H       1  UNL1        0.1472
     16 C          63.7785   82.8910   11.6209 C.3     1  UNL1        0.1332
     17 C          63.8223   83.3394   13.0516 C.ar    1  UNL1        0.0742
     18 C          63.9322   84.7574   13.5283 C.ar    1  UNL1        0.1148
     19 N          63.9416   84.7428   15.0282 N.ar    1  UNL1       -0.2228
     20 C          63.8376   83.3157   15.4785 C.ar    1  UNL1        0.1748
     21 N          63.7638   82.4484   14.2569 N.ar    1  UNL1       -0.3369
     22 H          63.6900   81.4667   14.2478 H       1  UNL1        0.1672
     23 N          61.6529   88.3279   11.9935 N.pl3   1  UNL1       -0.3119
     24 H          61.2414   87.8519   12.7506 H       1  UNL1        0.1522
     25 C          62.7214   89.3508   12.2421 C.ar    1  UNL1        0.0493
     26 C          63.4683   89.3542   13.5430 C.ar    1  UNL1        0.0170
     27 C          64.5369   90.3772   13.7917 C.ar    1  UNL1        0.0318
     28 C          64.8585   91.3967   12.7394 C.ar    1  UNL1        0.1507
     29 F          65.9270   92.4197   12.9881 F       1  UNL1       -0.2033
     30 C          64.1116   91.3933   11.4386 C.ar    1  UNL1        0.0863
     31 CL         64.4333   92.4129   10.3864 Cl      1  UNL1       -0.0799
     32 C          63.0431   90.3704   11.1900 C.ar    1  UNL1        0.0283
@<TRIPOS>BOND
     1    12    13    3
     2    13     1    1
     3     1     2   ar
     4     2     3   ar
     5     3     4   ar
     6     4     5   ar
     7     5     6    1
     8     5     7   ar
     9     7     8   ar
    10     8    14    1
    11    14    16    1
    12    16    17    1
    13    17    18   ar
    14    18    19   ar
    15    19    20   ar
    16    20    21   ar
    17     8     9   ar
    18     9    10   ar
    19    10    11   ar
    20    11    23    1
    21    23    25    1
    22    25    26   ar
    23    26    27   ar
    24    27    28   ar
    25    28    29    1
    26    28    30   ar
    27    30    31    1
    28    30    32   ar
    29    11     1   ar
    30    32    25   ar
    31    10     4   ar
    32    21    17   ar
    33    14    15    1
    34    21    22    1
    35    23    24    1
