@<TRIPOS>MOLECULE
*****
 24 26 0 0 0
SMALL
GASTEIGER

@<TRIPOS>ATOM
      1 C          62.0299   85.3946   11.1774 C.ar    1  UNL1        0.1345
      2 C          62.3901   85.2540    9.7282 C.ar    1  UNL1        0.0244
      3 C          61.8312   86.2138    8.7200 C.ar    1  UNL1        0.0115
      4 C          60.9121   87.3141    9.1611 C.ar    1  UNL1        0.0611
      5 C          60.5519   87.4546   10.6104 C.ar    1  UNL1        0.1072
      6 N          61.1108   86.4949   11.6186 N.ar    1  UNL1       -0.2386
      7 N          62.6707   82.9721   11.8637 N.am    1  UNL1       -0.2980
      8 C          62.5888   84.4348   12.1857 C.2     1  UNL1        0.2636
      9 O          63.0658   84.9378   13.5159 O.2     1  UNL1       -0.2685
     10 H          62.3577   82.6419   10.9906 H       1  UNL1        0.1498
     11 C          64.6083   82.2444   12.3286 C.3     1  UNL1        0.0248
     12 C          63.2296   82.0123   12.8719 C.3     1  UNL1        0.1116
     13 C          61.8510   81.7802   13.4153 C.3     1  UNL1        0.1625
     14 O          62.4099   80.8204   14.4235 O.3     1  UNL1       -0.3502
     15 C          63.7886   81.0525   13.8801 C.3     1  UNL1        0.1625
     16 C          60.3532   88.2739    8.1529 C.1     1  UNL1       -0.0582
     17 C          59.7943   89.2337    7.1447 C.1     1  UNL1       -0.0596
     18 C          59.2354   90.1935    6.1365 C.ar    1  UNL1        0.0442
     19 C          57.7505   90.3393    5.9826 C.ar    1  UNL1        0.0084
     20 C          57.1916   91.2990    4.9744 C.ar    1  UNL1        0.0029
     21 C          58.1177   92.1130    4.1201 C.ar    1  UNL1        0.0297
     22 C          59.6026   91.9672    4.2740 C.ar    1  UNL1        0.1408
     23 F          60.5287   92.7812    3.4197 F       1  UNL1       -0.2042
     24 C          60.1614   91.0075    5.2822 C.ar    1  UNL1        0.0379
@<TRIPOS>BOND
     1    11    12    1
     2    12     7    1
     3     7     8   am
     4     8     9    2
     5     8     1    1
     6     1     2   ar
     7     2     3   ar
     8     3     4   ar
     9     4    16    1
    10    16    17    3
    11    17    18    1
    12    18    19   ar
    13    19    20   ar
    14    20    21   ar
    15    21    22   ar
    16    22    23    1
    17    22    24   ar
    18     4     5   ar
    19     5     6   ar
    20    12    13    1
    21    13    14    1
    22    14    15    1
    23    15    12    1
    24     6     1   ar
    25    24    18   ar
    26     7    10    1
@<TRIPOS>MOLECULE
*****
 24 26 0 0 0
SMALL
GASTEIGER

@<TRIPOS>ATOM
      1 C          62.0464   85.3387   11.1371 C.ar    1  UNL1        0.1345
      2 C          61.2370   86.5163   11.5934 C.ar    1  UNL1        0.0244
      3 C          60.6899   87.4852   10.5875 C.ar    1  UNL1        0.0115
      4 C          60.9521   87.2765    9.1254 C.ar    1  UNL1        0.0611
      5 C          61.7615   86.0989    8.6692 C.ar    1  UNL1        0.1072
      6 N          62.3086   85.1300    9.6751 N.ar    1  UNL1       -0.2386
      7 N          62.7570   82.9236   11.7796 N.am    1  UNL1       -0.2980
      8 C          62.5936   84.3697   12.1430 C.2     1  UNL1        0.2636
      9 O          62.9773   84.8468   13.5123 O.2     1  UNL1       -0.2685
     10 H          62.5051   82.6105   10.8808 H       1  UNL1        0.1498
     11 C          64.6951   82.2354   12.2993 C.3     1  UNL1        0.0248
     12 C          63.3041   81.9546   12.7855 C.3     1  UNL1        0.1116
     13 C          61.9132   81.6738   13.2716 C.3     1  UNL1        0.1625
     14 O          62.4604   80.7049   14.2775 O.3     1  UNL1       -0.3502
     15 C          63.8513   80.9857   13.7913 C.3     1  UNL1        0.1625
     16 C          60.4049   88.2455    8.1195 C.1     1  UNL1       -0.0582
     17 C          59.8578   89.2144    7.1137 C.1     1  UNL1       -0.0596
     18 C          59.3106   90.1834    6.1078 C.ar    1  UNL1        0.0442
     19 C          60.2454   90.9572    5.2263 C.ar    1  UNL1        0.0084
     20 C          59.6983   91.9262    4.2204 C.ar    1  UNL1        0.0029
     21 C          58.2162   92.1212    4.0961 C.ar    1  UNL1        0.0297
     22 C          57.2813   91.3474    4.9777 C.ar    1  UNL1        0.1408
     23 F          55.7993   91.5424    4.8534 F       1  UNL1       -0.2042
     24 C          57.8285   90.3784    5.9835 C.ar    1  UNL1        0.0379
@<TRIPOS>BOND
     1    11    12    1
     2    12     7    1
     3     7     8   am
     4     8     9    2
     5     8     1    1
     6     1     2   ar
     7     2     3   ar
     8     3     4   ar
     9     4    16    1
    10    16    17    3
    11    17    18    1
    12    18    19   ar
    13    19    20   ar
    14    20    21   ar
    15    21    22   ar
    16    22    23    1
    17    22    24   ar
    18     4     5   ar
    19     5     6   ar
    20    12    13    1
    21    13    14    1
    22    14    15    1
    23    15    12    1
    24     6     1   ar
    25    24    18   ar
    26     7    10    1
@<TRIPOS>MOLECULE
*****
 24 26 0 0 0
SMALL
GASTEIGER

@<TRIPOS>ATOM
      1 C          64.3464   89.2252   13.9988 C.ar    1  UNL1        0.1345
      2 C          63.5877   88.8411   12.7632 C.ar    1  UNL1        0.0244
      3 C          63.2946   87.3973   12.4816 C.ar    1  UNL1        0.0115
      4 C          63.7602   86.3375   13.4356 C.ar    1  UNL1        0.0611
      5 C          64.5188   86.7215   14.6712 C.ar    1  UNL1        0.1072
      6 N          64.8119   88.1654   14.9529 N.ar    1  UNL1       -0.2386
      7 N          65.9796   91.2445   13.9300 N.am    1  UNL1       -0.2980
      8 C          64.6395   90.6691   14.2806 C.2     1  UNL1        0.2636
      9 O          63.5925   91.5374   14.9128 O.2     1  UNL1       -0.2685
     10 H          66.6668   90.6746   13.5151 H       1  UNL1        0.1498
     11 C          66.6390   92.3386   15.6236 C.3     1  UNL1        0.0248
     12 C          66.2727   92.6885   14.2117 C.3     1  UNL1        0.1116
     13 C          65.9065   93.0383   12.7999 C.3     1  UNL1        0.1625
     14 O          66.1996   94.4821   13.0816 O.3     1  UNL1       -0.3502
     15 C          66.5659   94.1323   14.4935 C.3     1  UNL1        0.1625
     16 C          63.4670   84.8936   13.1539 C.1     1  UNL1       -0.0582
     17 C          63.1739   83.4498   12.8721 C.1     1  UNL1       -0.0596
     18 C          62.8808   82.0058   12.5904 C.ar    1  UNL1        0.0442
     19 C          62.3979   81.1098   13.6921 C.ar    1  UNL1        0.0084
     20 C          62.1047   79.6660   13.4104 C.ar    1  UNL1        0.0029
     21 C          62.2946   79.1182   12.0270 C.ar    1  UNL1        0.0297
     22 C          62.7775   80.0143   10.9252 C.ar    1  UNL1        0.1408
     23 F          62.9673   79.4665    9.5418 F       1  UNL1       -0.2042
     24 C          63.0706   81.4581   11.2070 C.ar    1  UNL1        0.0379
@<TRIPOS>BOND
     1    11    12    1
     2    12     7    1
     3     7     8   am
     4     8     9    2
     5     8     1    1
     6     1     2   ar
     7     2     3   ar
     8     3     4   ar
     9     4    16    1
    10    16    17    3
    11    17    18    1
    12    18    19   ar
    13    19    20   ar
    14    20    21   ar
    15    21    22   ar
    16    22    23    1
    17    22    24   ar
    18     4     5   ar
    19     5     6   ar
    20    12    13    1
    21    13    14    1
    22    14    15    1
    23    15    12    1
    24     6     1   ar
    25    24    18   ar
    26     7    10    1
@<TRIPOS>MOLECULE
*****
 24 26 0 0 0
SMALL
GASTEIGER

@<TRIPOS>ATOM
      1 C          65.5773   93.3842   11.7353 C.ar    1  UNL1        0.1345
      2 C          64.6131   92.3778   11.1807 C.ar    1  UNL1        0.0244
      3 C          64.2169   91.1870   12.0022 C.ar    1  UNL1        0.0115
      4 C          64.7847   91.0026   13.3783 C.ar    1  UNL1        0.0611
      5 C          65.7488   92.0090   13.9329 C.ar    1  UNL1        0.1072
      6 N          66.1451   93.1998   13.1114 N.ar    1  UNL1       -0.2386
      7 N          66.0159   94.4737    9.4179 N.am    1  UNL1       -0.2980
      8 C          65.9736   94.5751   10.9138 C.2     1  UNL1        0.2636
      9 O          66.3276   95.8672   11.5883 O.2     1  UNL1       -0.2685
     10 H          65.7836   93.6256    8.9752 H       1  UNL1        0.1498
     11 C          65.0467   96.2538    8.7917 C.3     1  UNL1        0.0248
     12 C          66.4123   95.6646    8.5964 C.3     1  UNL1        0.1116
     13 C          67.7778   95.0755    8.4010 C.3     1  UNL1        0.1625
     14 O          68.1741   96.2663    7.5796 O.3     1  UNL1       -0.3502
     15 C          66.8085   96.8555    7.7749 C.3     1  UNL1        0.1625
     16 C          64.3884   89.8117   14.1998 C.1     1  UNL1       -0.0582
     17 C          63.9920   88.6209   15.0213 C.1     1  UNL1       -0.0596
     18 C          63.5957   87.4300   15.8428 C.ar    1  UNL1        0.0442
     19 C          62.9509   87.6245   17.1831 C.ar    1  UNL1        0.0084
     20 C          62.5546   86.4336   18.0045 C.ar    1  UNL1        0.0029
     21 C          62.8031   85.0483   17.4856 C.ar    1  UNL1        0.0297
     22 C          63.4479   84.8539   16.1454 C.ar    1  UNL1        0.1408
     23 F          63.6965   83.4686   15.6265 F       1  UNL1       -0.2042
     24 C          63.8442   86.0447   15.3240 C.ar    1  UNL1        0.0379
@<TRIPOS>BOND
     1    11    12    1
     2    12     7    1
     3     7     8   am
     4     8     9    2
     5     8     1    1
     6     1     2   ar
     7     2     3   ar
     8     3     4   ar
     9     4    16    1
    10    16    17    3
    11    17    18    1
    12    18    19   ar
    13    19    20   ar
    14    20    21   ar
    15    21    22   ar
    16    22    23    1
    17    22    24   ar
    18     4     5   ar
    19     5     6   ar
    20    12    13    1
    21    13    14    1
    22    14    15    1
    23    15    12    1
    24     6     1   ar
    25    24    18   ar
    26     7    10    1
@<TRIPOS>MOLECULE
*****
 24 26 0 0 0
SMALL
GASTEIGER

@<TRIPOS>ATOM
      1 C          71.9952   75.0496   14.8200 C.ar    1  UNL1        0.1345
      2 C          71.8099   74.6331   13.3909 C.ar    1  UNL1        0.0244
      3 C          71.8419   75.6619   12.2998 C.ar    1  UNL1        0.0115
      4 C          72.0592   77.1071   12.6378 C.ar    1  UNL1        0.0611
      5 C          72.2445   77.5235   14.0668 C.ar    1  UNL1        0.1072
      6 N          72.2125   76.4948   15.1579 N.ar    1  UNL1       -0.2386
      7 N          71.0620   72.8278   15.7910 N.am    1  UNL1       -0.2980
      8 C          71.9632   74.0208   15.9112 C.2     1  UNL1        0.2636
      9 O          72.8324   74.1851   17.1226 O.2     1  UNL1       -0.2685
     10 H          70.4915   72.7199   14.9959 H       1  UNL1        0.1498
     11 C          71.9089   70.9018   16.0621 C.3     1  UNL1        0.0248
     12 C          71.0300   71.7990   16.8822 C.3     1  UNL1        0.1116
     13 C          70.1512   72.6961   17.7023 C.3     1  UNL1        0.1625
     14 O          70.1192   71.6674   18.7934 O.3     1  UNL1       -0.3502
     15 C          70.9981   70.7702   17.9733 C.3     1  UNL1        0.1625
     16 C          72.0912   78.1359   11.5466 C.1     1  UNL1       -0.0582
     17 C          72.1231   79.1646   10.4554 C.1     1  UNL1       -0.0596
     18 C          72.1551   80.1934    9.3642 C.ar    1  UNL1        0.0442
     19 C          72.0677   81.6515    9.7053 C.ar    1  UNL1        0.0084
     20 C          72.0997   82.6802    8.6141 C.ar    1  UNL1        0.0029
     21 C          72.2191   82.2508    7.1819 C.ar    1  UNL1        0.0297
     22 C          72.3065   80.7928    6.8408 C.ar    1  UNL1        0.1408
     23 F          72.4259   80.3634    5.4085 F       1  UNL1       -0.2042
     24 C          72.2745   79.7641    7.9320 C.ar    1  UNL1        0.0379
@<TRIPOS>BOND
     1    11    12    1
     2    12     7    1
     3     7     8   am
     4     8     9    2
     5     8     1    1
     6     1     2   ar
     7     2     3   ar
     8     3     4   ar
     9     4    16    1
    10    16    17    3
    11    17    18    1
    12    18    19   ar
    13    19    20   ar
    14    20    21   ar
    15    21    22   ar
    16    22    23    1
    17    22    24   ar
    18     4     5   ar
    19     5     6   ar
    20    12    13    1
    21    13    14    1
    22    14    15    1
    23    15    12    1
    24     6     1   ar
    25    24    18   ar
    26     7    10    1
@<TRIPOS>MOLECULE
*****
 24 26 0 0 0
SMALL
GASTEIGER

@<TRIPOS>ATOM
      1 C          65.2228   91.3047   14.0390 C.ar    1  UNL1        0.1345
      2 C          64.8368   91.9191   12.7262 C.ar    1  UNL1        0.0244
      3 C          64.0005   91.1434   11.7522 C.ar    1  UNL1        0.0115
      4 C          63.5501   89.7533   12.0910 C.ar    1  UNL1        0.0611
      5 C          63.9361   89.1389   13.4038 C.ar    1  UNL1        0.1072
      6 N          64.7725   89.9146   14.3778 N.ar    1  UNL1       -0.2386
      7 N          67.5273   92.2607   14.7639 N.am    1  UNL1       -0.2980
      8 C          66.0592   92.0804   15.0130 C.2     1  UNL1        0.2636
      9 O          65.4274   92.6758   16.2363 O.2     1  UNL1       -0.2685
     10 H          67.9420   91.8698   13.9610 H       1  UNL1        0.1498
     11 C          68.8005   91.7548   16.3835 C.3     1  UNL1        0.0248
     12 C          68.3637   93.0364   15.7380 C.3     1  UNL1        0.1116
     13 C          67.9270   94.3180   15.0924 C.3     1  UNL1        0.1625
     14 O          68.7634   95.0936   16.0665 O.3     1  UNL1       -0.3502
     15 C          69.2001   93.8120   16.7120 C.3     1  UNL1        0.1625
     16 C          62.7137   88.9775   11.1169 C.1     1  UNL1       -0.0582
     17 C          61.8773   88.2019   10.1429 C.1     1  UNL1       -0.0596
     18 C          61.0409   87.4262    9.1688 C.ar    1  UNL1        0.0442
     19 C          59.5866   87.7535    9.0019 C.ar    1  UNL1        0.0084
     20 C          58.7503   86.9778    8.0278 C.ar    1  UNL1        0.0029
     21 C          59.3683   85.8748    7.2207 C.ar    1  UNL1        0.0297
     22 C          60.8226   85.5475    7.3876 C.ar    1  UNL1        0.1408
     23 F          61.4405   84.4445    6.5804 F       1  UNL1       -0.2042
     24 C          61.6589   86.3232    8.3616 C.ar    1  UNL1        0.0379
@<TRIPOS>BOND
     1    11    12    1
     2    12     7    1
     3     7     8   am
     4     8     9    2
     5     8     1    1
     6     1     2   ar
     7     2     3   ar
     8     3     4   ar
     9     4    16    1
    10    16    17    3
    11    17    18    1
    12    18    19   ar
    13    19    20   ar
    14    20    21   ar
    15    21    22   ar
    16    22    23    1
    17    22    24   ar
    18     4     5   ar
    19     5     6   ar
    20    12    13    1
    21    13    14    1
    22    14    15    1
    23    15    12    1
    24     6     1   ar
    25    24    18   ar
    26     7    10    1
@<TRIPOS>MOLECULE
*****
 24 26 0 0 0
SMALL
GASTEIGER

@<TRIPOS>ATOM
      1 C          59.8900   88.6940    7.6329 C.ar    1  UNL1        0.1345
      2 C          59.7497   87.2064    7.5016 C.ar    1  UNL1        0.0244
      3 C          60.3259   86.3032    8.5513 C.ar    1  UNL1        0.0115
      4 C          61.0425   86.8875    9.7325 C.ar    1  UNL1        0.0611
      5 C          61.1828   88.3751    9.8638 C.ar    1  UNL1        0.1072
      6 N          60.6065   89.2784    8.8141 N.ar    1  UNL1       -0.2386
      7 N          60.2065   90.5411    5.8334 N.am    1  UNL1       -0.2980
      8 C          59.3137   89.5973    6.5832 C.2     1  UNL1        0.2636
      9 O          57.8445   89.5569    6.2832 O.2     1  UNL1       -0.2685
     10 H          61.1708   90.5676    6.0303 H       1  UNL1        0.1498
     11 C          60.9838   91.5713    4.1499 C.3     1  UNL1        0.0248
     12 C          59.6303   91.4444    4.7836 C.3     1  UNL1        0.1116
     13 C          58.2767   91.3175    5.4174 C.3     1  UNL1        0.1625
     14 O          57.7005   92.2207    4.3676 O.3     1  UNL1       -0.3502
     15 C          59.0541   92.3477    3.7339 C.3     1  UNL1        0.1625
     16 C          61.6188   85.9842   10.7822 C.1     1  UNL1       -0.0582
     17 C          62.1950   85.0809   11.8320 C.1     1  UNL1       -0.0596
     18 C          62.7712   84.1775   12.8817 C.ar    1  UNL1        0.0442
     19 C          63.5015   84.7612   14.0548 C.ar    1  UNL1        0.0084
     20 C          64.0777   83.8579   15.1045 C.ar    1  UNL1        0.0029
     21 C          63.9237   82.3709   14.9811 C.ar    1  UNL1        0.0297
     22 C          63.1935   81.7873   13.8081 C.ar    1  UNL1        0.1408
     23 F          63.0395   80.3003   13.6847 F       1  UNL1       -0.2042
     24 C          62.6173   82.6906   12.7584 C.ar    1  UNL1        0.0379
@<TRIPOS>BOND
     1    11    12    1
     2    12     7    1
     3     7     8   am
     4     8     9    2
     5     8     1    1
     6     1     2   ar
     7     2     3   ar
     8     3     4   ar
     9     4    16    1
    10    16    17    3
    11    17    18    1
    12    18    19   ar
    13    19    20   ar
    14    20    21   ar
    15    21    22   ar
    16    22    23    1
    17    22    24   ar
    18     4     5   ar
    19     5     6   ar
    20    12    13    1
    21    13    14    1
    22    14    15    1
    23    15    12    1
    24     6     1   ar
    25    24    18   ar
    26     7    10    1
@<TRIPOS>MOLECULE
*****
 24 26 0 0 0
SMALL
GASTEIGER

@<TRIPOS>ATOM
      1 C          59.8209   88.7639    7.3570 C.ar    1  UNL1        0.1345
      2 C          59.6146   87.2943    7.1388 C.ar    1  UNL1        0.0244
      3 C          60.1741   86.3049    8.1176 C.ar    1  UNL1        0.0115
      4 C          60.9400   86.7852    9.3145 C.ar    1  UNL1        0.0611
      5 C          61.1464   88.2548    9.5327 C.ar    1  UNL1        0.1072
      6 N          60.5868   89.2441    8.5539 N.ar    1  UNL1       -0.2386
      7 N          60.1815   90.6769    5.6364 N.am    1  UNL1       -0.2980
      8 C          59.2614   89.7533    6.3782 C.2     1  UNL1        0.2636
      9 O          57.7817   89.8190    6.1412 O.2     1  UNL1       -0.2685
     10 H          61.1526   90.6338    5.7920 H       1  UNL1        0.1498
     11 C          58.2700   91.5303    5.2930 C.3     1  UNL1        0.0248
     12 C          59.6219   91.6664    4.6576 C.3     1  UNL1        0.1116
     13 C          60.9738   91.8024    4.0222 C.3     1  UNL1        0.1625
     14 O          60.4142   92.7918    3.0435 O.3     1  UNL1       -0.3502
     15 C          59.0623   92.6557    3.6789 C.3     1  UNL1        0.1625
     16 C          61.4996   85.7958   10.2934 C.1     1  UNL1       -0.0582
     17 C          62.0591   84.8064   11.2721 C.1     1  UNL1       -0.0596
     18 C          62.6187   83.8170   12.2509 C.ar    1  UNL1        0.0442
     19 C          62.5795   82.3501   11.9400 C.ar    1  UNL1        0.0084
     20 C          63.1391   81.3608   12.9188 C.ar    1  UNL1        0.0029
     21 C          63.7378   81.8383   14.2085 C.ar    1  UNL1        0.0297
     22 C          63.7770   83.3052   14.5195 C.ar    1  UNL1        0.1408
     23 F          64.3757   83.7827   15.8092 F       1  UNL1       -0.2042
     24 C          63.2174   84.2945   13.5407 C.ar    1  UNL1        0.0379
@<TRIPOS>BOND
     1    11    12    1
     2    12     7    1
     3     7     8   am
     4     8     9    2
     5     8     1    1
     6     1     2   ar
     7     2     3   ar
     8     3     4   ar
     9     4    16    1
    10    16    17    3
    11    17    18    1
    12    18    19   ar
    13    19    20   ar
    14    20    21   ar
    15    21    22   ar
    16    22    23    1
    17    22    24   ar
    18     4     5   ar
    19     5     6   ar
    20    12    13    1
    21    13    14    1
    22    14    15    1
    23    15    12    1
    24     6     1   ar
    25    24    18   ar
    26     7    10    1
@<TRIPOS>MOLECULE
*****
 24 26 0 0 0
SMALL
GASTEIGER

@<TRIPOS>ATOM
      1 C          63.2530   84.6528   14.3413 C.ar    1  UNL1        0.1345
      2 C          63.0396   85.3585   13.0350 C.ar    1  UNL1        0.0244
      3 C          63.4920   86.7788   12.8672 C.ar    1  UNL1        0.0115
      4 C          64.1578   87.4933   14.0057 C.ar    1  UNL1        0.0611
      5 C          64.3712   86.7876   15.3120 C.ar    1  UNL1        0.1072
      6 N          63.9188   85.3674   15.4798 N.ar    1  UNL1       -0.2386
      7 N          62.4172   82.4205   13.3077 N.am    1  UNL1       -0.2980
      8 C          62.8006   83.2325   14.5092 C.2     1  UNL1        0.2636
      9 O          62.7316   82.6243   15.8786 O.2     1  UNL1       -0.2685
     10 H          62.4625   82.8198   12.4089 H       1  UNL1        0.1498
     11 C          63.2571   80.5189   12.8854 C.3     1  UNL1        0.0248
     12 C          61.9648   81.0002   13.4756 C.3     1  UNL1        0.1116
     13 C          60.6725   81.4815   14.0657 C.3     1  UNL1        0.1625
     14 O          60.2202   80.0613   14.2336 O.3     1  UNL1       -0.3502
     15 C          61.5125   79.5800   13.6434 C.3     1  UNL1        0.1625
     16 C          64.6102   88.9136   13.8378 C.1     1  UNL1       -0.0582
     17 C          65.0625   90.3339   13.6699 C.1     1  UNL1       -0.0596
     18 C          65.5149   91.7542   13.5021 C.ar    1  UNL1        0.0442
     19 C          66.1524   92.4790   14.6503 C.ar    1  UNL1        0.0084
     20 C          66.6047   93.8992   14.4823 C.ar    1  UNL1        0.0029
     21 C          66.4196   94.5947   13.1663 C.ar    1  UNL1        0.0297
     22 C          65.7822   93.8699   12.0181 C.ar    1  UNL1        0.1408
     23 F          65.5971   94.5654   10.7020 F       1  UNL1       -0.2042
     24 C          65.3298   92.4497   12.1860 C.ar    1  UNL1        0.0379
@<TRIPOS>BOND
     1    11    12    1
     2    12     7    1
     3     7     8   am
     4     8     9    2
     5     8     1    1
     6     1     2   ar
     7     2     3   ar
     8     3     4   ar
     9     4    16    1
    10    16    17    3
    11    17    18    1
    12    18    19   ar
    13    19    20   ar
    14    20    21   ar
    15    21    22   ar
    16    22    23    1
    17    22    24   ar
    18     4     5   ar
    19     5     6   ar
    20    12    13    1
    21    13    14    1
    22    14    15    1
    23    15    12    1
    24     6     1   ar
    25    24    18   ar
    26     7    10    1
