@<TRIPOS>MOLECULE
*****
 36 40 0 0 0
SMALL
GASTEIGER

@<TRIPOS>ATOM
      1 C          63.7978   91.3268   11.5254 C.ar    1  UNL1        0.0884
      2 C          62.7681   90.9831   10.4901 C.ar    1  UNL1        0.0846
      3 N          61.6414   90.0542   10.8324 N.ar    1  UNL1       -0.2897
      4 C          61.5441   89.4687   12.2101 C.ar    1  UNL1        0.2641
      5 O          60.4173   88.5397   12.5524 O.2     1  UNL1       -0.2669
      6 C          62.5737   89.8124   13.2454 C.ar    1  UNL1        0.0944
      7 C          62.7375   89.3925   14.6761 C.ar    1  UNL1        0.1263
      8 N          63.9655   90.0621   15.2179 N.ar    1  UNL1       -0.1676
      9 N          64.5607   90.8958   14.1221 N.ar    1  UNL1       -0.2524
     10 C          63.7006   90.7414   12.9030 C.ar    1  UNL1        0.0897
     11 C          65.7988   91.7362   14.2270 C.3     1  UNL1        0.1079
     12 C          67.1268   91.0867   14.4809 C.3     1  UNL1        0.0415
     13 C          68.3649   91.9271   14.5859 C.3     1  UNL1        0.0706
     14 N          68.2749   93.4169   14.4369 N.3     1  UNL1       -0.2974
     15 C          66.9467   94.0664   14.1831 C.3     1  UNL1        0.0706
     16 C          65.7087   93.2261   14.0781 C.3     1  UNL1        0.0415
     17 H          68.8812   93.6721   13.6574 H       1  UNL1        0.1232
     18 O          66.3451   91.8186   11.3859 O.2     1  UNL1       -0.2697
     19 C          64.9246   92.2558   11.1830 C.2     1  UNL1        0.2524
     20 N          64.6309   93.6220   10.6377 N.am    1  UNL1       -0.2802
     21 H          63.6986   93.9089   10.5045 H       1  UNL1        0.1552
     22 C          65.7578   94.5510   10.2953 C.ar    1  UNL1        0.0537
     23 C          65.8037   95.9262   10.8924 C.ar    1  UNL1        0.0353
     24 C          66.9306   96.8552   10.5501 C.ar    1  UNL1        0.1002
     25 N          68.0115   96.4090    9.6107 N.ar    1  UNL1       -0.2422
     26 C          67.9655   95.0337    9.0136 C.ar    1  UNL1        0.1002
     27 C          66.8387   94.1047    9.3559 C.ar    1  UNL1        0.0353
     28 C          60.6117   89.7105    9.7971 C.3     1  UNL1        0.1358
     29 C          60.7036   88.4132    9.0497 C.ar    1  UNL1        0.0014
     30 C          59.6384   88.0398    8.0618 C.ar    1  UNL1       -0.0015
     31 C          59.7304   86.7425    7.3143 C.ar    1  UNL1        0.0120
     32 C          60.8874   85.8187    7.5548 C.ar    1  UNL1        0.0682
     33 CL         60.9794   84.5214    6.8074 Cl      1  UNL1       -0.0814
     34 C          61.9526   86.1922    8.5427 C.ar    1  UNL1        0.0679
     35 CL         63.1097   85.2684    8.7832 Cl      1  UNL1       -0.0814
     36 C          61.8607   87.4895    9.2902 C.ar    1  UNL1        0.0099
@<TRIPOS>BOND
     1    18    19    2
     2    19    20   am
     3    20    22    1
     4    22    23   ar
     5    23    24   ar
     6    24    25   ar
     7    25    26   ar
     8    26    27   ar
     9    19     1    1
    10     1     2   ar
    11     2     3   ar
    12     3    28    1
    13    28    29    1
    14    29    30   ar
    15    30    31   ar
    16    31    32   ar
    17    32    33    1
    18    32    34   ar
    19    34    35    1
    20    34    36   ar
    21     3     4   ar
    22     4     5    2
    23     4     6   ar
    24     6     7   ar
    25     7     8   ar
    26     8     9   ar
    27     9    11    1
    28    11    12    1
    29    12    13    1
    30    13    14    1
    31    14    15    1
    32    15    16    1
    33     9    10   ar
    34    27    22   ar
    35    10     1   ar
    36    36    29   ar
    37    10     6   ar
    38    16    11    1
    39    20    21    1
    40    14    17    1
@<TRIPOS>MOLECULE
*****
 36 40 0 0 0
SMALL
GASTEIGER

@<TRIPOS>ATOM
      1 C          62.9710   86.8993   12.0406 C.ar    1  UNL1        0.0884
      2 C          62.7679   88.3837   12.1135 C.ar    1  UNL1        0.0846
      3 N          63.3162   89.1595   13.2742 N.ar    1  UNL1       -0.2897
      4 C          64.0676   88.4510   14.3621 C.ar    1  UNL1        0.2641
      5 O          64.6159   89.2270   15.5229 O.2     1  UNL1       -0.2669
      6 C          64.2707   86.9667   14.2892 C.ar    1  UNL1        0.0944
      7 C          64.9643   86.0023   15.2051 C.ar    1  UNL1        0.1263
      8 N          64.8446   84.6305   14.6105 N.ar    1  UNL1       -0.1676
      9 N          64.0771   84.7469   13.3270 N.ar    1  UNL1       -0.2524
     10 C          63.7224   86.1908   13.1284 C.ar    1  UNL1        0.0897
     11 C          63.7259   83.6178   12.4041 C.3     1  UNL1        0.1079
     12 C          64.4200   83.4872   11.0808 C.3     1  UNL1        0.0415
     13 C          64.0688   82.3580   10.1578 C.3     1  UNL1        0.0706
     14 N          63.0237   81.3595   10.5583 N.3     1  UNL1       -0.2974
     15 C          62.3296   81.4901   11.8817 C.3     1  UNL1        0.0706
     16 C          62.6807   82.6192   12.8046 C.3     1  UNL1        0.0415
     17 H          63.4730   80.4438   10.5505 H       1  UNL1        0.1232
     18 O          61.6315   84.8720   11.1208 O.2     1  UNL1       -0.2697
     19 C          62.4227   86.1234   10.8798 C.2     1  UNL1        0.2524
     20 N          62.6655   86.5990    9.4780 N.am    1  UNL1       -0.2802
     21 H          63.1847   87.4203    9.3198 H       1  UNL1        0.1552
     22 C          62.1171   85.8231    8.3173 C.ar    1  UNL1        0.0537
     23 C          60.6650   85.9362    7.9585 C.ar    1  UNL1        0.0353
     24 C          60.1166   85.1603    6.7978 C.ar    1  UNL1        0.1002
     25 N          61.0202   84.2713    5.9959 N.ar    1  UNL1       -0.2422
     26 C          62.4723   84.1582    6.3547 C.ar    1  UNL1        0.1002
     27 C          63.0207   84.9340    7.5154 C.ar    1  UNL1        0.0353
     28 C          63.1130   90.6440   13.3471 C.3     1  UNL1        0.1358
     29 C          64.1134   91.5696   12.7206 C.ar    1  UNL1        0.0014
     30 C          64.1154   91.7773   11.2351 C.ar    1  UNL1       -0.0015
     31 C          65.1158   92.7029   10.6085 C.ar    1  UNL1        0.0120
     32 C          66.1142   93.4206   11.4675 C.ar    1  UNL1        0.0682
     33 CL         67.1147   94.3462   10.8411 Cl      1  UNL1       -0.0814
     34 C          66.1123   93.2129   12.9531 C.ar    1  UNL1        0.0679
     35 CL         67.1107   93.9307   13.8121 Cl      1  UNL1       -0.0814
     36 C          65.1119   92.2873   13.5797 C.ar    1  UNL1        0.0099
@<TRIPOS>BOND
     1    18    19    2
     2    19    20   am
     3    20    22    1
     4    22    23   ar
     5    23    24   ar
     6    24    25   ar
     7    25    26   ar
     8    26    27   ar
     9    19     1    1
    10     1     2   ar
    11     2     3   ar
    12     3    28    1
    13    28    29    1
    14    29    30   ar
    15    30    31   ar
    16    31    32   ar
    17    32    33    1
    18    32    34   ar
    19    34    35    1
    20    34    36   ar
    21     3     4   ar
    22     4     5    2
    23     4     6   ar
    24     6     7   ar
    25     7     8   ar
    26     8     9   ar
    27     9    11    1
    28    11    12    1
    29    12    13    1
    30    13    14    1
    31    14    15    1
    32    15    16    1
    33     9    10   ar
    34    27    22   ar
    35    10     1   ar
    36    36    29   ar
    37    10     6   ar
    38    16    11    1
    39    20    21    1
    40    14    17    1
@<TRIPOS>MOLECULE
*****
 36 40 0 0 0
SMALL
GASTEIGER

@<TRIPOS>ATOM
      1 C          63.0232   88.0190   12.3139 C.ar    1  UNL1        0.0884
      2 C          63.5767   88.4566   13.6376 C.ar    1  UNL1        0.0846
      3 N          63.9084   89.9005   13.8715 N.ar    1  UNL1       -0.2897
      4 C          63.6866   90.9071   12.7817 C.ar    1  UNL1        0.2641
      5 O          64.0183   92.3512   13.0157 O.2     1  UNL1       -0.2669
      6 C          63.1331   90.4696   11.4580 C.ar    1  UNL1        0.0944
      7 C          62.8099   91.2283   10.2050 C.ar    1  UNL1        0.1263
      8 N          62.2784   90.2532    9.1968 N.ar    1  UNL1       -0.1676
      9 N          62.2732   88.8918    9.8266 N.ar    1  UNL1       -0.2524
     10 C          62.8014   89.0256   11.2241 C.ar    1  UNL1        0.0897
     11 C          61.8194   87.6200    9.1735 C.3     1  UNL1        0.1079
     12 C          62.8094   86.5310    8.8837 C.3     1  UNL1        0.0415
     13 C          62.3557   85.2591    8.2306 C.3     1  UNL1        0.0706
     14 N          60.9120   85.0762    7.8673 N.3     1  UNL1       -0.2974
     15 C          59.9219   86.1653    8.1571 C.3     1  UNL1        0.0706
     16 C          60.3756   87.4371    8.8102 C.3     1  UNL1        0.0415
     17 H          60.5873   84.2444    8.3603 H       1  UNL1        0.1232
     18 O          61.3090   86.1832   11.6494 O.2     1  UNL1       -0.2697
     19 C          62.6915   86.5750   12.0800 C.2     1  UNL1        0.2524
     20 N          63.7423   85.5227   12.2767 N.am    1  UNL1       -0.2802
     21 H          64.6496   85.7798   12.5592 H       1  UNL1        0.1552
     22 C          63.4105   84.0786   12.0427 C.ar    1  UNL1        0.0537
     23 C          63.8578   83.4012   10.7814 C.ar    1  UNL1        0.0353
     24 C          63.5261   81.9572   10.5474 C.ar    1  UNL1        0.1002
     25 N          62.7470   81.1906   11.5748 N.ar    1  UNL1       -0.2422
     26 C          62.2997   81.8681   12.8361 C.ar    1  UNL1        0.1002
     27 C          62.6315   83.3121   13.0701 C.ar    1  UNL1        0.0353
     28 C          64.4619   90.3381   15.1953 C.3     1  UNL1        0.1358
     29 C          65.6892   91.1989   15.2475 C.ar    1  UNL1        0.0014
     30 C          65.8311   92.2385   16.3194 C.ar    1  UNL1       -0.0015
     31 C          67.0584   93.0994   16.3715 C.ar    1  UNL1        0.0120
     32 C          68.1437   92.9207   15.3518 C.ar    1  UNL1        0.0682
     33 CL         69.3710   93.7815   15.4038 Cl      1  UNL1       -0.0814
     34 C          68.0018   91.8810   14.2798 C.ar    1  UNL1        0.0679
     35 CL         69.0872   91.7023   13.2600 Cl      1  UNL1       -0.0814
     36 C          66.7746   91.0201   14.2276 C.ar    1  UNL1        0.0099
@<TRIPOS>BOND
     1    18    19    2
     2    19    20   am
     3    20    22    1
     4    22    23   ar
     5    23    24   ar
     6    24    25   ar
     7    25    26   ar
     8    26    27   ar
     9    19     1    1
    10     1     2   ar
    11     2     3   ar
    12     3    28    1
    13    28    29    1
    14    29    30   ar
    15    30    31   ar
    16    31    32   ar
    17    32    33    1
    18    32    34   ar
    19    34    35    1
    20    34    36   ar
    21     3     4   ar
    22     4     5    2
    23     4     6   ar
    24     6     7   ar
    25     7     8   ar
    26     8     9   ar
    27     9    11    1
    28    11    12    1
    29    12    13    1
    30    13    14    1
    31    14    15    1
    32    15    16    1
    33     9    10   ar
    34    27    22   ar
    35    10     1   ar
    36    36    29   ar
    37    10     6   ar
    38    16    11    1
    39    20    21    1
    40    14    17    1
@<TRIPOS>MOLECULE
*****
 36 40 0 0 0
SMALL
GASTEIGER

@<TRIPOS>ATOM
      1 C          63.7974   87.2495   14.4348 C.ar    1  UNL1        0.0884
      2 C          64.1007   88.6678   14.0520 C.ar    1  UNL1        0.0846
      3 N          63.8883   89.7737   15.0427 N.ar    1  UNL1       -0.2897
      4 C          63.3725   89.4615   16.4163 C.ar    1  UNL1        0.2641
      5 O          63.1601   90.5676   17.4071 O.2     1  UNL1       -0.2669
      6 C          63.0692   88.0432   16.7990 C.ar    1  UNL1        0.0944
      7 C          62.5539   87.4348   18.0696 C.ar    1  UNL1        0.1263
      8 N          62.4478   85.9528   17.8640 N.ar    1  UNL1       -0.1676
      9 N          62.8976   85.6452   16.4665 N.ar    1  UNL1       -0.2524
     10 C          63.2817   86.9372   15.8083 C.ar    1  UNL1        0.0897
     11 C          62.9535   84.2846   15.8376 C.3     1  UNL1        0.1079
     12 C          61.7201   83.6905   15.2246 C.3     1  UNL1        0.0415
     13 C          61.7759   82.3298   14.5956 C.3     1  UNL1        0.0706
     14 N          63.0651   81.5633   14.5797 N.3     1  UNL1       -0.2974
     15 C          64.2985   82.1575   15.1928 C.3     1  UNL1        0.0706
     16 C          64.2427   83.5180   15.8217 C.3     1  UNL1        0.0415
     17 H          63.2838   81.3753   13.6014 H       1  UNL1        0.1232
     18 O          65.2250   85.2698   13.5444 O.2     1  UNL1       -0.2697
     19 C          64.0098   86.1435   13.4440 C.2     1  UNL1        0.2524
     20 N          63.0071   85.9112   12.3529 N.am    1  UNL1       -0.2802
     21 H          62.2095   86.4846   12.2870 H       1  UNL1        0.1552
     22 C          63.2196   84.8051   11.3621 C.ar    1  UNL1        0.0537
     23 C          63.6205   83.4399   11.8368 C.ar    1  UNL1        0.0353
     24 C          63.8331   82.3338   10.8461 C.ar    1  UNL1        0.1002
     25 N          63.6446   82.5929    9.3808 N.ar    1  UNL1       -0.2422
     26 C          63.2437   83.9583    8.9061 C.ar    1  UNL1        0.1002
     27 C          63.0312   85.0643    9.8967 C.ar    1  UNL1        0.0353
     28 C          64.1916   91.1921   14.6600 C.3     1  UNL1        0.1358
     29 C          65.5831   91.7299   14.8163 C.ar    1  UNL1        0.0014
     30 C          65.9493   92.5189   16.0383 C.ar    1  UNL1       -0.0015
     31 C          67.3409   93.0567   16.1946 C.ar    1  UNL1        0.0120
     32 C          68.3661   92.8055   15.1289 C.ar    1  UNL1        0.0682
     33 CL         69.7576   93.3433   15.2851 Cl      1  UNL1       -0.0814
     34 C          67.9998   92.0165   13.9068 C.ar    1  UNL1        0.0679
     35 CL         69.0251   91.7653   12.8411 Cl      1  UNL1       -0.0814
     36 C          66.6083   91.4787   13.7505 C.ar    1  UNL1        0.0099
@<TRIPOS>BOND
     1    18    19    2
     2    19    20   am
     3    20    22    1
     4    22    23   ar
     5    23    24   ar
     6    24    25   ar
     7    25    26   ar
     8    26    27   ar
     9    19     1    1
    10     1     2   ar
    11     2     3   ar
    12     3    28    1
    13    28    29    1
    14    29    30   ar
    15    30    31   ar
    16    31    32   ar
    17    32    33    1
    18    32    34   ar
    19    34    35    1
    20    34    36   ar
    21     3     4   ar
    22     4     5    2
    23     4     6   ar
    24     6     7   ar
    25     7     8   ar
    26     8     9   ar
    27     9    11    1
    28    11    12    1
    29    12    13    1
    30    13    14    1
    31    14    15    1
    32    15    16    1
    33     9    10   ar
    34    27    22   ar
    35    10     1   ar
    36    36    29   ar
    37    10     6   ar
    38    16    11    1
    39    20    21    1
    40    14    17    1
@<TRIPOS>MOLECULE
*****
 36 40 0 0 0
SMALL
GASTEIGER

@<TRIPOS>ATOM
      1 C          63.8023   87.4421   14.3565 C.ar    1  UNL1        0.0884
      2 C          64.0659   88.8565   13.9320 C.ar    1  UNL1        0.0846
      3 N          63.8838   89.9793   14.9097 N.ar    1  UNL1       -0.2897
      4 C          63.4380   89.6879   16.3121 C.ar    1  UNL1        0.2641
      5 O          63.2558   90.8108   17.2898 O.2     1  UNL1       -0.2669
      6 C          63.1744   88.2736   16.7365 C.ar    1  UNL1        0.0944
      7 C          62.7286   87.6840   18.0418 C.ar    1  UNL1        0.1263
      8 N          62.6352   86.1967   17.8707 N.ar    1  UNL1       -0.1676
      9 N          63.0233   85.8671   16.4597 N.ar    1  UNL1       -0.2524
     10 C          63.3565   87.1507   15.7588 C.ar    1  UNL1        0.0897
     11 C          63.0700   84.4948   15.8558 C.3     1  UNL1        0.1079
     12 C          64.3613   83.7323   15.8255 C.3     1  UNL1        0.0415
     13 C          64.4080   82.3600   15.2216 C.3     1  UNL1        0.0706
     14 N          63.1635   81.7503   14.6480 N.3     1  UNL1       -0.2974
     15 C          61.8720   82.5129   14.6783 C.3     1  UNL1        0.0706
     16 C          61.8253   83.8851   15.2822 C.3     1  UNL1        0.0415
     17 H          63.0027   80.8789   15.1530 H       1  UNL1        0.1232
     18 O          65.1702   85.4079   13.4957 O.2     1  UNL1       -0.2697
     19 C          63.9845   86.3193   13.3788 C.2     1  UNL1        0.2524
     20 N          62.9810   86.1077   12.2842 N.am    1  UNL1       -0.2802
     21 H          62.2028   86.7058   12.2074 H       1  UNL1        0.1552
     22 C          63.1632   84.9848   11.3064 C.ar    1  UNL1        0.0537
     23 C          62.9620   85.2273    9.8399 C.ar    1  UNL1        0.0353
     24 C          63.1442   84.1045    8.8621 C.ar    1  UNL1        0.1002
     25 N          63.5277   82.7392    9.3509 N.ar    1  UNL1       -0.2422
     26 C          63.7290   82.4967   10.8175 C.ar    1  UNL1        0.1002
     27 C          63.5467   83.6195   11.7952 C.ar    1  UNL1        0.0353
     28 C          64.1474   91.3937   14.4852 C.3     1  UNL1        0.1358
     29 C          65.1264   91.6762   13.3844 C.ar    1  UNL1        0.0014
     30 C          64.6321   92.0659   12.0228 C.ar    1  UNL1       -0.0015
     31 C          65.6111   92.3484   10.9220 C.ar    1  UNL1        0.0120
     32 C          67.0843   92.2413   11.1828 C.ar    1  UNL1        0.0682
     33 CL         68.0634   92.5238   10.0821 Cl      1  UNL1       -0.0814
     34 C          67.5786   91.8517   12.5444 C.ar    1  UNL1        0.0679
     35 CL         69.0519   91.7446   12.8052 Cl      1  UNL1       -0.0814
     36 C          66.5997   91.5691   13.6452 C.ar    1  UNL1        0.0099
@<TRIPOS>BOND
     1    18    19    2
     2    19    20   am
     3    20    22    1
     4    22    23   ar
     5    23    24   ar
     6    24    25   ar
     7    25    26   ar
     8    26    27   ar
     9    19     1    1
    10     1     2   ar
    11     2     3   ar
    12     3    28    1
    13    28    29    1
    14    29    30   ar
    15    30    31   ar
    16    31    32   ar
    17    32    33    1
    18    32    34   ar
    19    34    35    1
    20    34    36   ar
    21     3     4   ar
    22     4     5    2
    23     4     6   ar
    24     6     7   ar
    25     7     8   ar
    26     8     9   ar
    27     9    11    1
    28    11    12    1
    29    12    13    1
    30    13    14    1
    31    14    15    1
    32    15    16    1
    33     9    10   ar
    34    27    22   ar
    35    10     1   ar
    36    36    29   ar
    37    10     6   ar
    38    16    11    1
    39    20    21    1
    40    14    17    1
@<TRIPOS>MOLECULE
*****
 36 40 0 0 0
SMALL
GASTEIGER

@<TRIPOS>ATOM
      1 C          63.8606   87.3239   14.5149 C.ar    1  UNL1        0.0884
      2 C          64.1802   88.7507   14.1800 C.ar    1  UNL1        0.0846
      3 N          63.9552   89.8286   15.1984 N.ar    1  UNL1       -0.2897
      4 C          63.4105   89.4799   16.5519 C.ar    1  UNL1        0.2641
      5 O          63.1855   90.5580   17.5704 O.2     1  UNL1       -0.2669
      6 C          63.0909   88.0531   16.8868 C.ar    1  UNL1        0.0944
      7 C          62.5469   87.4114   18.1286 C.ar    1  UNL1        0.1263
      8 N          62.4356   85.9367   17.8776 N.ar    1  UNL1       -0.1676
      9 N          62.9110   85.6671   16.4807 N.ar    1  UNL1       -0.2524
     10 C          63.3160   86.9751   15.8683 C.ar    1  UNL1        0.0897
     11 C          62.9708   84.3251   15.8133 C.3     1  UNL1        0.1079
     12 C          64.2599   83.5588   15.7840 C.3     1  UNL1        0.0415
     13 C          64.3198   82.2167   15.1167 C.3     1  UNL1        0.0706
     14 N          63.0905   81.6410   14.4786 N.3     1  UNL1       -0.2974
     15 C          61.8013   82.4073   14.5079 C.3     1  UNL1        0.0706
     16 C          61.7414   83.7493   15.1752 C.3     1  UNL1        0.0415
     17 H          62.9122   80.7472   14.9365 H       1  UNL1        0.1232
     18 O          65.3254   85.4036   13.5573 O.2     1  UNL1       -0.2697
     19 C          64.0856   86.2459   13.4964 C.2     1  UNL1        0.2524
     20 N          63.0710   86.0103   12.4171 N.am    1  UNL1       -0.2802
     21 H          62.2574   86.5631   12.3771 H       1  UNL1        0.1552
     22 C          63.2961   84.9323   11.3986 C.ar    1  UNL1        0.0537
     23 C          63.8409   83.6009   11.8237 C.ar    1  UNL1        0.0353
     24 C          64.0661   82.5228   10.8053 C.ar    1  UNL1        0.1002
     25 N          63.7464   82.7761    9.3619 N.ar    1  UNL1       -0.2422
     26 C          63.2016   84.1076    8.9368 C.ar    1  UNL1        0.1002
     27 C          62.9765   85.1855    9.9551 C.ar    1  UNL1        0.0353
     28 C          64.2748   91.2555   14.8635 C.3     1  UNL1        0.1358
     29 C          65.3072   91.5680   13.8211 C.ar    1  UNL1        0.0014
     30 C          66.7642   91.3952   14.1331 C.ar    1  UNL1       -0.0015
     31 C          67.7965   91.7078   13.0906 C.ar    1  UNL1        0.0120
     32 C          67.3719   92.1931   11.7364 C.ar    1  UNL1        0.0682
     33 CL         68.4041   92.5057   10.6939 Cl      1  UNL1       -0.0814
     34 C          65.9148   92.3659   11.4244 C.ar    1  UNL1        0.0679
     35 CL         65.4902   92.8512   10.0701 Cl      1  UNL1       -0.0814
     36 C          64.8825   92.0534   12.4668 C.ar    1  UNL1        0.0099
@<TRIPOS>BOND
     1    18    19    2
     2    19    20   am
     3    20    22    1
     4    22    23   ar
     5    23    24   ar
     6    24    25   ar
     7    25    26   ar
     8    26    27   ar
     9    19     1    1
    10     1     2   ar
    11     2     3   ar
    12     3    28    1
    13    28    29    1
    14    29    30   ar
    15    30    31   ar
    16    31    32   ar
    17    32    33    1
    18    32    34   ar
    19    34    35    1
    20    34    36   ar
    21     3     4   ar
    22     4     5    2
    23     4     6   ar
    24     6     7   ar
    25     7     8   ar
    26     8     9   ar
    27     9    11    1
    28    11    12    1
    29    12    13    1
    30    13    14    1
    31    14    15    1
    32    15    16    1
    33     9    10   ar
    34    27    22   ar
    35    10     1   ar
    36    36    29   ar
    37    10     6   ar
    38    16    11    1
    39    20    21    1
    40    14    17    1
@<TRIPOS>MOLECULE
*****
 36 40 0 0 0
SMALL
GASTEIGER

@<TRIPOS>ATOM
      1 C          63.8119   91.2840   12.3909 C.ar    1  UNL1        0.0884
      2 C          62.6909   90.9470   11.4530 C.ar    1  UNL1        0.0846
      3 N          61.5371   90.1163   11.9310 N.ar    1  UNL1       -0.2897
      4 C          61.5042   89.6225   13.3471 C.ar    1  UNL1        0.2641
      5 O          60.3503   88.7918   13.8251 O.2     1  UNL1       -0.2669
      6 C          62.6252   89.9596   14.2850 C.ar    1  UNL1        0.0944
      7 C          62.8661   89.6168   15.7253 C.ar    1  UNL1        0.1263
      8 N          64.1688   90.2357   16.1374 N.ar    1  UNL1       -0.1676
      9 N          64.7331   90.9610   14.9518 N.ar    1  UNL1       -0.2524
     10 C          63.7790   90.7903   13.8069 C.ar    1  UNL1        0.0897
     11 C          66.0246   91.7231   14.9172 C.3     1  UNL1        0.1079
     12 C          66.1999   92.9409   15.7751 C.3     1  UNL1        0.0415
     13 C          67.4915   93.7031   15.7405 C.3     1  UNL1        0.0706
     14 N          68.6075   93.2474   14.8480 N.3     1  UNL1       -0.2974
     15 C          68.4321   92.0294   13.9901 C.3     1  UNL1        0.0706
     16 C          67.1407   91.2673   14.0247 C.3     1  UNL1        0.0415
     17 H          69.4121   93.0704   15.4495 H       1  UNL1        0.1232
     18 O          65.4462   93.2744   12.7342 O.2     1  UNL1       -0.2697
     19 C          64.9657   92.1147   11.9128 C.2     1  UNL1        0.2524
     20 N          65.6392   91.7858   10.6135 N.am    1  UNL1       -0.2802
     21 H          65.3239   91.0248   10.0744 H       1  UNL1        0.1552
     22 C          66.7930   92.6167   10.1355 C.ar    1  UNL1        0.0537
     23 C          68.1408   91.9873    9.9416 C.ar    1  UNL1        0.0353
     24 C          69.2946   92.8181    9.4636 C.ar    1  UNL1        0.1002
     25 N          69.1008   94.2781    9.1795 N.ar    1  UNL1       -0.2422
     26 C          67.7530   94.9074    9.3734 C.ar    1  UNL1        0.1002
     27 C          66.5992   94.0767    9.8514 C.ar    1  UNL1        0.0353
     28 C          60.4161   89.7792   10.9929 C.3     1  UNL1        0.1358
     29 C          60.5554   88.6289   10.0404 C.ar    1  UNL1        0.0014
     30 C          61.8503   87.8764    9.9575 C.ar    1  UNL1       -0.0015
     31 C          61.9896   86.7260    9.0049 C.ar    1  UNL1        0.0120
     32 C          60.8340   86.3282    8.1354 C.ar    1  UNL1        0.0682
     33 CL         60.9731   85.1778    7.1829 Cl      1  UNL1       -0.0814
     34 C          59.5389   87.0807    8.2184 C.ar    1  UNL1        0.0679
     35 CL         58.3833   86.6828    7.3488 Cl      1  UNL1       -0.0814
     36 C          59.3996   88.2310    9.1709 C.ar    1  UNL1        0.0099
@<TRIPOS>BOND
     1    18    19    2
     2    19    20   am
     3    20    22    1
     4    22    23   ar
     5    23    24   ar
     6    24    25   ar
     7    25    26   ar
     8    26    27   ar
     9    19     1    1
    10     1     2   ar
    11     2     3   ar
    12     3    28    1
    13    28    29    1
    14    29    30   ar
    15    30    31   ar
    16    31    32   ar
    17    32    33    1
    18    32    34   ar
    19    34    35    1
    20    34    36   ar
    21     3     4   ar
    22     4     5    2
    23     4     6   ar
    24     6     7   ar
    25     7     8   ar
    26     8     9   ar
    27     9    11    1
    28    11    12    1
    29    12    13    1
    30    13    14    1
    31    14    15    1
    32    15    16    1
    33     9    10   ar
    34    27    22   ar
    35    10     1   ar
    36    36    29   ar
    37    10     6   ar
    38    16    11    1
    39    20    21    1
    40    14    17    1
