@<TRIPOS>MOLECULE
*****
 26 29 0 0 0
SMALL
GASTEIGER

@<TRIPOS>ATOM
      1 N          60.5640   88.7024    9.5851 N.3     1  UNL1       -0.3227
      2 C          61.5911   88.6440   10.6767 C.3     1  UNL1        0.0510
      3 C          62.4806   88.0837   11.7467 C.3     1  UNL1        0.0654
      4 C          63.4098   88.9889   12.4997 C.3     1  UNL1        0.2034
      5 N          63.4495   90.4546   12.1827 N.pl3   1  UNL1       -0.1931
      6 C          62.5601   91.0149   11.1127 C.3     1  UNL1        0.2034
      7 C          61.6309   90.1096   10.3597 C.3     1  UNL1        0.0654
      8 H          60.1892   87.7682    9.4207 H       1  UNL1        0.1188
      9 H          60.9965   89.0507    8.7296 H       1  UNL1        0.1188
     10 C          64.3788   91.3598   12.9358 C.2     1  UNL1        0.3205
     11 N          64.4889   91.2486   14.4276 N.2     1  UNL1        0.0097
     12 C          65.4181   92.1537   15.1806 C.2     1  UNL1        0.4717
     13 N          66.2372   93.1703   14.4419 N.2     1  UNL1        0.0158
     14 C          66.1271   93.2816   12.9501 C.2     1  UNL1        0.3714
     15 N          66.8035   94.1806   11.9581 N.2     1  UNL1       -0.0339
     16 C          66.2924   93.8310   10.5919 C.2     1  UNL1        0.2323
     17 C          65.3000   92.7159   10.7396 C.2     1  UNL1        0.0486
     18 C          65.1979   92.3764   12.1971 C.3     1  UNL1        0.2428
     19 C          61.1946   87.1987   10.6146 C.3     1  UNL1        0.0408
     20 C          61.3706   86.4269    9.3405 C.ar    1  UNL1       -0.0208
     21 C          62.7073   85.8384    8.9985 C.ar    1  UNL1       -0.0034
     22 C          62.8832   85.0666    7.7244 C.ar    1  UNL1        0.0111
     23 C          61.7224   84.8833    6.7922 C.ar    1  UNL1        0.0577
     24 CL         61.8983   84.1115    5.5180 Cl      1  UNL1       -0.0822
     25 C          60.3857   85.4718    7.1341 C.ar    1  UNL1        0.0111
     26 C          60.2098   86.2436    8.4083 C.ar    1  UNL1       -0.0034
@<TRIPOS>BOND
     1     1     2    1
     2     2    19    1
     3    19    20    1
     4    20    21   ar
     5    21    22   ar
     6    22    23   ar
     7    23    24    1
     8    23    25   ar
     9    25    26   ar
    10     2     3    1
    11     3     4    1
    12     4     5    1
    13     5    10    1
    14    10    11    2
    15    11    12    1
    16    12    13    2
    17    13    14    1
    18    14    15    2
    19    15    16    1
    20    16    17    2
    21    17    18    1
    22     5     6    1
    23     6     7    1
    24     7     2    1
    25    26    20   ar
    26    18    10    1
    27    18    14    1
    28     1     8    1
    29     1     9    1
@<TRIPOS>MOLECULE
*****
 26 29 0 0 0
SMALL
GASTEIGER

@<TRIPOS>ATOM
      1 N          60.6782   88.8530    9.1093 N.3     1  UNL1       -0.3227
      2 C          61.5186   88.7951   10.3503 C.3     1  UNL1        0.0510
      3 C          62.1523   88.2593   11.5999 C.3     1  UNL1        0.0654
      4 C          63.0896   89.1199   12.3939 C.3     1  UNL1        0.2034
      5 N          63.3935   90.5165   11.9384 N.pl3   1  UNL1       -0.1931
      6 C          62.7599   91.0523   10.6889 C.3     1  UNL1        0.2034
      7 C          61.8225   90.1916    9.8948 C.3     1  UNL1        0.0654
      8 H          60.1949   87.9635    8.9842 H       1  UNL1        0.1188
      9 H          61.2756   89.0318    8.3021 H       1  UNL1        0.1188
     10 C          64.3309   91.3771   12.7325 C.2     1  UNL1        0.3205
     11 N          64.4001   91.2328   14.2240 N.2     1  UNL1        0.0097
     12 C          65.3374   92.0934   15.0180 C.2     1  UNL1        0.4717
     13 N          66.2058   93.0983   14.3207 N.2     1  UNL1        0.0158
     14 C          66.1366   93.2426   12.8293 C.2     1  UNL1        0.3714
     15 N          66.8651   94.1396   11.8729 N.2     1  UNL1       -0.0339
     16 C          66.3779   93.8333   10.4877 C.2     1  UNL1        0.2323
     17 C          65.3483   92.7471   10.5880 C.2     1  UNL1        0.0486
     18 C          65.1992   92.3820   12.0352 C.3     1  UNL1        0.2428
     19 C          60.9230   87.4187   10.3748 C.3     1  UNL1        0.0408
     20 C          61.8139   86.2145   10.2963 C.ar    1  UNL1       -0.0208
     21 C          62.4817   85.8588    9.0012 C.ar    1  UNL1       -0.0034
     22 C          63.3726   84.6546    8.9226 C.ar    1  UNL1        0.0111
     23 C          63.5958   83.8061   10.1394 C.ar    1  UNL1        0.0577
     24 CL         64.4867   82.6019   10.0610 Cl      1  UNL1       -0.0822
     25 C          62.9280   84.1619   11.4345 C.ar    1  UNL1        0.0111
     26 C          62.0370   85.3661   11.5130 C.ar    1  UNL1       -0.0034
@<TRIPOS>BOND
     1     1     2    1
     2     2    19    1
     3    19    20    1
     4    20    21   ar
     5    21    22   ar
     6    22    23   ar
     7    23    24    1
     8    23    25   ar
     9    25    26   ar
    10     2     3    1
    11     3     4    1
    12     4     5    1
    13     5    10    1
    14    10    11    2
    15    11    12    1
    16    12    13    2
    17    13    14    1
    18    14    15    2
    19    15    16    1
    20    16    17    2
    21    17    18    1
    22     5     6    1
    23     6     7    1
    24     7     2    1
    25    26    20   ar
    26    18    10    1
    27    18    14    1
    28     1     8    1
    29     1     9    1
@<TRIPOS>MOLECULE
*****
 26 29 0 0 0
SMALL
GASTEIGER

@<TRIPOS>ATOM
      1 N          60.5686   88.4760    9.5629 N.3     1  UNL1       -0.3227
      2 C          61.6259   88.7609   10.5880 C.3     1  UNL1        0.0510
      3 C          62.5141   88.5836   11.7837 C.3     1  UNL1        0.0654
      4 C          63.5221   89.6382   12.1322 C.3     1  UNL1        0.2034
      5 N          63.6421   90.8703   11.2849 N.pl3   1  UNL1       -0.1931
      6 C          62.7540   91.0476   10.0892 C.3     1  UNL1        0.2034
      7 C          61.7459   89.9929    9.7407 C.3     1  UNL1        0.0654
      8 H          60.1313   87.5772    9.7662 H       1  UNL1        0.1188
      9 H          60.9932   88.4456    8.6359 H       1  UNL1        0.1188
     10 C          64.6502   91.9249   11.6334 C.2     1  UNL1        0.3205
     11 N          65.1528   92.8611   10.5746 N.2     1  UNL1        0.0097
     12 C          66.1608   93.9157   10.9230 C.2     1  UNL1        0.4717
     13 N          66.6665   94.0342   12.3303 N.2     1  UNL1        0.0158
     14 C          66.1639   93.0980   13.3891 C.2     1  UNL1        0.3714
     15 N          66.4771   92.9750   14.8509 N.2     1  UNL1       -0.0339
     16 C          65.6626   91.8442   15.4058 C.2     1  UNL1        0.2323
     17 C          64.8459   91.2685   14.2870 C.2     1  UNL1        0.0486
     18 C          65.1558   92.0434   13.0406 C.3     1  UNL1        0.2428
     19 C          61.1388   87.4300   11.0793 C.3     1  UNL1        0.0408
     20 C          61.9525   86.1948   10.8295 C.ar    1  UNL1       -0.0208
     21 C          62.4474   85.8896    9.4468 C.ar    1  UNL1       -0.0034
     22 C          63.2611   84.6544    9.1971 C.ar    1  UNL1        0.0111
     23 C          63.5798   83.7245   10.3301 C.ar    1  UNL1        0.0577
     24 CL         64.3935   82.4893   10.0805 Cl      1  UNL1       -0.0822
     25 C          63.0849   84.0298   11.7128 C.ar    1  UNL1        0.0111
     26 C          62.2712   85.2649   11.9626 C.ar    1  UNL1       -0.0034
@<TRIPOS>BOND
     1     1     2    1
     2     2    19    1
     3    19    20    1
     4    20    21   ar
     5    21    22   ar
     6    22    23   ar
     7    23    24    1
     8    23    25   ar
     9    25    26   ar
    10     2     3    1
    11     3     4    1
    12     4     5    1
    13     5    10    1
    14    10    11    2
    15    11    12    1
    16    12    13    2
    17    13    14    1
    18    14    15    2
    19    15    16    1
    20    16    17    2
    21    17    18    1
    22     5     6    1
    23     6     7    1
    24     7     2    1
    25    26    20   ar
    26    18    10    1
    27    18    14    1
    28     1     8    1
    29     1     9    1
@<TRIPOS>MOLECULE
*****
 26 29 0 0 0
SMALL
GASTEIGER

@<TRIPOS>ATOM
      1 N          61.6237   87.1752   11.8605 N.3     1  UNL1       -0.3227
      2 C          61.9197   88.4978   11.2178 C.3     1  UNL1        0.0510
      3 C          61.8222   89.6597   10.2742 C.3     1  UNL1        0.0654
      4 C          62.7553   90.8250   10.4204 C.3     1  UNL1        0.2034
      5 N          63.7861   90.8284   11.5102 N.pl3   1  UNL1       -0.1931
      6 C          63.8836   89.6665   12.4539 C.3     1  UNL1        0.2034
      7 C          62.9504   88.5012   12.3076 C.3     1  UNL1        0.0654
      8 H          60.8521   86.7237   11.3693 H       1  UNL1        0.1188
      9 H          61.3662   87.3215   12.8365 H       1  UNL1        0.1188
     10 C          64.7192   91.9937   11.6564 C.2     1  UNL1        0.3205
     11 N          65.0108   92.8735   10.4771 N.2     1  UNL1        0.0097
     12 C          65.9438   94.0387   10.6232 C.2     1  UNL1        0.4717
     13 N          66.5854   94.3243   11.9487 N.2     1  UNL1        0.0158
     14 C          66.2938   93.4444   13.1280 C.2     1  UNL1        0.3714
     15 N          66.7743   93.4782   14.5486 N.2     1  UNL1       -0.0339
     16 C          66.1382   92.3338   15.2804 C.2     1  UNL1        0.2323
     17 C          65.2645   91.5927   14.3121 C.2     1  UNL1        0.0486
     18 C          65.3607   92.2791   12.9819 C.3     1  UNL1        0.2428
     19 C          60.7862   88.0351   10.3512 C.3     1  UNL1        0.0408
     20 C          61.0398   87.0532    9.2459 C.ar    1  UNL1       -0.0208
     21 C          62.3817   86.3950    9.1205 C.ar    1  UNL1       -0.0034
     22 C          62.6352   85.4131    8.0152 C.ar    1  UNL1        0.0111
     23 C          61.5467   85.0895    7.0352 C.ar    1  UNL1        0.0577
     24 CL         61.8001   84.1076    5.9299 Cl      1  UNL1       -0.0822
     25 C          60.2047   85.7478    7.1605 C.ar    1  UNL1        0.0111
     26 C          59.9512   86.7297    8.2658 C.ar    1  UNL1       -0.0034
@<TRIPOS>BOND
     1     1     2    1
     2     2    19    1
     3    19    20    1
     4    20    21   ar
     5    21    22   ar
     6    22    23   ar
     7    23    24    1
     8    23    25   ar
     9    25    26   ar
    10     2     3    1
    11     3     4    1
    12     4     5    1
    13     5    10    1
    14    10    11    2
    15    11    12    1
    16    12    13    2
    17    13    14    1
    18    14    15    2
    19    15    16    1
    20    16    17    2
    21    17    18    1
    22     5     6    1
    23     6     7    1
    24     7     2    1
    25    26    20   ar
    26    18    10    1
    27    18    14    1
    28     1     8    1
    29     1     9    1
@<TRIPOS>MOLECULE
*****
 26 29 0 0 0
SMALL
GASTEIGER

@<TRIPOS>ATOM
      1 N          64.9375   82.6526   11.0901 N.3     1  UNL1       -0.3227
      2 C          63.8086   83.5959   11.3821 C.3     1  UNL1        0.0510
      3 C          62.7640   84.3490   12.1516 C.3     1  UNL1        0.0654
      4 C          61.8682   85.3225   11.4449 C.3     1  UNL1        0.2034
      5 N          62.0168   85.5431    9.9686 N.pl3   1  UNL1       -0.1931
      6 C          63.0612   84.7901    9.1991 C.3     1  UNL1        0.2034
      7 C          63.9571   83.8165    9.9059 C.3     1  UNL1        0.0654
      8 H          65.2244   82.1885   11.9520 H       1  UNL1        0.1188
      9 H          65.7256   83.1740   10.7062 H       1  UNL1        0.1188
     10 C          61.1209   86.5167    9.2618 C.2     1  UNL1        0.3205
     11 N          60.2153   86.0422    8.1642 N.2     1  UNL1        0.0097
     12 C          59.3194   87.0157    7.4575 C.2     1  UNL1        0.4717
     13 N          59.3291   88.4639    7.8484 N.2     1  UNL1        0.0158
     14 C          60.2346   88.9385    8.9460 C.2     1  UNL1        0.3714
     15 N          60.4603   90.2951    9.5448 N.2     1  UNL1       -0.0339
     16 C          61.4957   90.1599   10.6217 C.2     1  UNL1        0.2323
     17 C          61.9099   88.7198   10.6884 C.2     1  UNL1        0.0486
     18 C          61.1305   87.9649    9.6527 C.3     1  UNL1        0.2428
     19 C          64.0520   83.0477   12.7570 C.3     1  UNL1        0.0408
     20 C          63.7885   83.9012   13.9621 C.ar    1  UNL1       -0.0208
     21 C          64.7089   85.0388   14.2913 C.ar    1  UNL1       -0.0034
     22 C          64.4453   85.8923   15.4964 C.ar    1  UNL1        0.0111
     23 C          63.2612   85.6079   16.3723 C.ar    1  UNL1        0.0577
     24 CL         62.9976   86.4613   17.5774 Cl      1  UNL1       -0.0822
     25 C          62.3408   84.4702   16.0431 C.ar    1  UNL1        0.0111
     26 C          62.6044   83.6168   14.8380 C.ar    1  UNL1       -0.0034
@<TRIPOS>BOND
     1     1     2    1
     2     2    19    1
     3    19    20    1
     4    20    21   ar
     5    21    22   ar
     6    22    23   ar
     7    23    24    1
     8    23    25   ar
     9    25    26   ar
    10     2     3    1
    11     3     4    1
    12     4     5    1
    13     5    10    1
    14    10    11    2
    15    11    12    1
    16    12    13    2
    17    13    14    1
    18    14    15    2
    19    15    16    1
    20    16    17    2
    21    17    18    1
    22     5     6    1
    23     6     7    1
    24     7     2    1
    25    26    20   ar
    26    18    10    1
    27    18    14    1
    28     1     8    1
    29     1     9    1
@<TRIPOS>MOLECULE
*****
 26 29 0 0 0
SMALL
GASTEIGER

@<TRIPOS>ATOM
      1 N          60.6590   88.8496    9.3575 N.3     1  UNL1       -0.3227
      2 C          61.6620   88.7918   10.4712 C.3     1  UNL1        0.0510
      3 C          62.5015   88.2395   11.5849 C.3     1  UNL1        0.0654
      4 C          63.4636   89.1313   12.3121 C.3     1  UNL1        0.2034
      5 N          63.5863   90.5756   11.9257 N.pl3   1  UNL1       -0.1931
      6 C          62.7468   91.1279   10.8120 C.3     1  UNL1        0.2034
      7 C          61.7847   90.2360   10.0848 C.3     1  UNL1        0.0654
      8 H          60.2384   87.9291    9.2306 H       1  UNL1        0.1188
      9 H          61.1244   89.1325    8.4950 H       1  UNL1        0.1188
     10 C          64.5485   91.4674   12.6529 C.2     1  UNL1        0.3205
     11 N          65.5387   92.2891   11.8821 N.2     1  UNL1        0.0097
     12 C          66.5008   93.1809   12.6093 C.2     1  UNL1        0.4717
     13 N          66.4728   93.2511   14.1074 N.2     1  UNL1        0.0158
     14 C          65.4825   92.4294   14.8783 C.2     1  UNL1        0.3714
     15 N          65.2208   92.2923   16.3489 N.2     1  UNL1       -0.0339
     16 C          64.0968   91.3157   16.5305 C.2     1  UNL1        0.2323
     17 C          63.6639   90.8492   15.1722 C.2     1  UNL1        0.0486
     18 C          64.5204   91.5375   14.1510 C.3     1  UNL1        0.2428
     19 C          61.1910   87.3677   10.4708 C.3     1  UNL1        0.0408
     20 C          61.3533   86.5245    9.2409 C.ar    1  UNL1       -0.0208
     21 C          60.1814   86.2849    8.3358 C.ar    1  UNL1       -0.0034
     22 C          60.3436   85.4418    7.1059 C.ar    1  UNL1        0.0111
     23 C          61.6779   84.8381    6.7810 C.ar    1  UNL1        0.0577
     24 CL         61.8403   83.9949    5.5511 Cl      1  UNL1       -0.0822
     25 C          62.8498   85.0777    7.6861 C.ar    1  UNL1        0.0111
     26 C          62.6875   85.9209    8.9160 C.ar    1  UNL1       -0.0034
@<TRIPOS>BOND
     1     1     2    1
     2     2    19    1
     3    19    20    1
     4    20    21   ar
     5    21    22   ar
     6    22    23   ar
     7    23    24    1
     8    23    25   ar
     9    25    26   ar
    10     2     3    1
    11     3     4    1
    12     4     5    1
    13     5    10    1
    14    10    11    2
    15    11    12    1
    16    12    13    2
    17    13    14    1
    18    14    15    2
    19    15    16    1
    20    16    17    2
    21    17    18    1
    22     5     6    1
    23     6     7    1
    24     7     2    1
    25    26    20   ar
    26    18    10    1
    27    18    14    1
    28     1     8    1
    29     1     9    1
@<TRIPOS>MOLECULE
*****
 26 29 0 0 0
SMALL
GASTEIGER

@<TRIPOS>ATOM
      1 N          63.2911   90.7179   16.8525 N.3     1  UNL1       -0.3227
      2 C          63.6668   89.8459   15.6913 C.3     1  UNL1        0.0510
      3 C          64.1543   89.4423   14.3313 C.3     1  UNL1        0.0654
      4 C          64.1895   87.9929   13.9469 C.3     1  UNL1        0.2034
      5 N          63.7372   86.9469   14.9225 N.pl3   1  UNL1       -0.1931
      6 C          63.2497   87.3505   16.2824 C.3     1  UNL1        0.2034
      7 C          63.2145   88.8000   16.6668 C.3     1  UNL1        0.0654
      8 H          63.4579   91.6950   16.6120 H       1  UNL1        0.1188
      9 H          63.8561   90.4662   17.6635 H       1  UNL1        0.1188
     10 C          63.7724   85.4975   14.5380 C.2     1  UNL1        0.3205
     11 N          64.2783   84.4752   15.5122 N.2     1  UNL1        0.0097
     12 C          64.3135   83.0258   15.1278 C.2     1  UNL1        0.4717
     13 N          63.8428   82.5985   13.7691 N.2     1  UNL1        0.0158
     14 C          63.3369   83.6208   12.7949 C.2     1  UNL1        0.3714
     15 N          62.8116   83.4996   11.3951 N.2     1  UNL1       -0.0339
     16 C          62.4517   84.8741   10.9145 C.2     1  UNL1        0.2323
     17 C          62.7546   85.8449   12.0172 C.2     1  UNL1        0.0486
     18 C          63.3017   85.0703   13.1793 C.3     1  UNL1        0.2428
     19 C          63.9886   91.1946   15.1191 C.3     1  UNL1        0.0408
     20 C          65.4059   91.6857   15.1078 C.ar    1  UNL1       -0.0208
     21 C          65.9469   92.4423   16.2846 C.ar    1  UNL1       -0.0034
     22 C          67.3642   92.9333   16.2733 C.ar    1  UNL1        0.0111
     23 C          68.2405   92.6678   15.0852 C.ar    1  UNL1        0.0577
     24 CL         69.6578   93.1588   15.0739 Cl      1  UNL1       -0.0822
     25 C          67.6995   91.9112   13.9084 C.ar    1  UNL1        0.0111
     26 C          66.2822   91.4201   13.9197 C.ar    1  UNL1       -0.0034
@<TRIPOS>BOND
     1     1     2    1
     2     2    19    1
     3    19    20    1
     4    20    21   ar
     5    21    22   ar
     6    22    23   ar
     7    23    24    1
     8    23    25   ar
     9    25    26   ar
    10     2     3    1
    11     3     4    1
    12     4     5    1
    13     5    10    1
    14    10    11    2
    15    11    12    1
    16    12    13    2
    17    13    14    1
    18    14    15    2
    19    15    16    1
    20    16    17    2
    21    17    18    1
    22     5     6    1
    23     6     7    1
    24     7     2    1
    25    26    20   ar
    26    18    10    1
    27    18    14    1
    28     1     8    1
    29     1     9    1
@<TRIPOS>MOLECULE
*****
 26 29 0 0 0
SMALL
GASTEIGER

@<TRIPOS>ATOM
      1 N          65.9415   91.6767   14.9784 N.3     1  UNL1       -0.3227
      2 C          65.1456   91.4157   13.7342 C.3     1  UNL1        0.0510
      3 C          64.5088   91.6414   12.3948 C.3     1  UNL1        0.0654
      4 C          63.6899   90.5562   11.7613 C.3     1  UNL1        0.2034
      5 N          63.5075   89.2451   12.4670 N.pl3   1  UNL1       -0.1931
      6 C          64.1442   89.0193   13.8063 C.3     1  UNL1        0.2034
      7 C          64.9632   90.1047   14.4399 C.3     1  UNL1        0.0654
      8 H          66.3306   92.6189   14.9417 H       1  UNL1        0.1188
      9 H          66.7000   90.9980   15.0455 H       1  UNL1        0.1188
     10 C          62.6885   88.1598   11.8334 C.2     1  UNL1        0.3205
     11 N          62.8818   86.7326   12.2526 N.2     1  UNL1        0.0097
     12 C          62.0628   85.6474   11.6191 C.2     1  UNL1        0.4717
     13 N          61.0505   85.9893   10.5662 N.2     1  UNL1        0.0158
     14 C          60.8573   87.4165   10.1470 C.2     1  UNL1        0.3714
     15 N          59.9423   88.0525    9.1429 N.2     1  UNL1       -0.0339
     16 C          60.1958   89.5308    9.1560 C.2     1  UNL1        0.2323
     17 C          61.2674   89.8085   10.1681 C.2     1  UNL1        0.0486
     18 C          61.6763   88.5017   10.7806 C.3     1  UNL1        0.2428
     19 C          65.6043   92.8173   13.4605 C.3     1  UNL1        0.0408
     20 C          66.2205   93.1597   12.1365 C.ar    1  UNL1       -0.0208
     21 C          67.1235   92.1763   11.4528 C.ar    1  UNL1       -0.0034
     22 C          67.7397   92.5186   10.1287 C.ar    1  UNL1        0.0111
     23 C          67.4528   93.8444    9.4883 C.ar    1  UNL1        0.0577
     24 CL         68.0689   94.1869    8.1643 Cl      1  UNL1       -0.0822
     25 C          66.5497   94.8278   10.1720 C.ar    1  UNL1        0.0111
     26 C          65.9336   94.4855   11.4961 C.ar    1  UNL1       -0.0034
@<TRIPOS>BOND
     1     1     2    1
     2     2    19    1
     3    19    20    1
     4    20    21   ar
     5    21    22   ar
     6    22    23   ar
     7    23    24    1
     8    23    25   ar
     9    25    26   ar
    10     2     3    1
    11     3     4    1
    12     4     5    1
    13     5    10    1
    14    10    11    2
    15    11    12    1
    16    12    13    2
    17    13    14    1
    18    14    15    2
    19    15    16    1
    20    16    17    2
    21    17    18    1
    22     5     6    1
    23     6     7    1
    24     7     2    1
    25    26    20   ar
    26    18    10    1
    27    18    14    1
    28     1     8    1
    29     1     9    1
@<TRIPOS>MOLECULE
*****
 26 29 0 0 0
SMALL
GASTEIGER

@<TRIPOS>ATOM
      1 N          65.9837   91.3377   14.8000 N.3     1  UNL1       -0.3227
      2 C          65.2221   91.4718   13.5148 C.3     1  UNL1        0.0510
      3 C          64.7470   92.0405   12.2106 C.3     1  UNL1        0.0654
      4 C          63.7112   91.3112   11.4073 C.3     1  UNL1        0.2034
      5 N          63.1504   90.0132   11.9083 N.pl3   1  UNL1       -0.1931
      6 C          63.6255   89.4445   13.2124 C.3     1  UNL1        0.2034
      7 C          64.6613   90.1739   14.0157 C.3     1  UNL1        0.0654
      8 H          66.6075   92.1371   14.9105 H       1  UNL1        0.1188
      9 H          66.5325   90.4781   14.7819 H       1  UNL1        0.1188
     10 C          62.1146   89.2840   11.1050 C.2     1  UNL1        0.3205
     11 N          61.1202   90.0541   10.2876 N.2     1  UNL1        0.0097
     12 C          60.0844   89.3249    9.4843 C.2     1  UNL1        0.4717
     13 N          60.0429   87.8255    9.4984 N.2     1  UNL1        0.0158
     14 C          61.0373   87.0554   10.3158 C.2     1  UNL1        0.3714
     15 N          61.2404   85.5839   10.5241 N.2     1  UNL1       -0.0339
     16 C          62.4018   85.4037   11.4561 C.2     1  UNL1        0.2323
     17 C          62.9164   86.7638   11.8239 C.2     1  UNL1        0.0486
     18 C          62.0731   87.7846   11.1191 C.3     1  UNL1        0.2428
     19 C          66.0473   92.7232   13.4602 C.3     1  UNL1        0.0408
     20 C          66.4817   93.2778   12.1359 C.ar    1  UNL1       -0.0208
     21 C          67.2287   92.4093   11.1676 C.ar    1  UNL1       -0.0034
     22 C          67.6631   92.9639    9.8433 C.ar    1  UNL1        0.0111
     23 C          67.3503   94.3871    9.4873 C.ar    1  UNL1        0.0577
     24 CL         67.7847   94.9418    8.1630 Cl      1  UNL1       -0.0822
     25 C          66.6033   95.2556   10.4555 C.ar    1  UNL1        0.0111
     26 C          66.1689   94.7010   11.7799 C.ar    1  UNL1       -0.0034
@<TRIPOS>BOND
     1     1     2    1
     2     2    19    1
     3    19    20    1
     4    20    21   ar
     5    21    22   ar
     6    22    23   ar
     7    23    24    1
     8    23    25   ar
     9    25    26   ar
    10     2     3    1
    11     3     4    1
    12     4     5    1
    13     5    10    1
    14    10    11    2
    15    11    12    1
    16    12    13    2
    17    13    14    1
    18    14    15    2
    19    15    16    1
    20    16    17    2
    21    17    18    1
    22     5     6    1
    23     6     7    1
    24     7     2    1
    25    26    20   ar
    26    18    10    1
    27    18    14    1
    28     1     8    1
    29     1     9    1
