@<TRIPOS>MOLECULE
*****
 28 31 0 0 0
SMALL
GASTEIGER

@<TRIPOS>ATOM
      1 C          62.3425   88.4151   10.8246 C.3     1  UNL1        0.0522
      2 C          62.8622   87.5969   11.9693 C.ar    1  UNL1        0.0637
      3 N          62.5771   86.1254   12.0296 N.ar    1  UNL1       -0.2495
      4 C          63.0967   85.3071   13.1744 C.ar    1  UNL1        0.0809
      5 C          63.9014   85.9603   14.2588 C.ar    1  UNL1        0.0193
      6 C          64.1864   87.4317   14.1984 C.ar    1  UNL1        0.0072
      7 C          63.6668   88.2500   13.0537 C.ar    1  UNL1        0.0672
      8 C          62.8117   83.8357   13.2347 C.ar    1  UNL1        0.0178
      9 C          63.0543   82.9747   12.0306 C.ar    1  UNL1        0.0038
     10 C          62.7693   81.5033   12.0909 C.ar    1  UNL1        0.0297
     11 C          62.2417   80.8928   13.3555 C.ar    1  UNL1        0.1401
     12 F          61.9567   79.4214   13.4158 F       1  UNL1       -0.2042
     13 C          61.9991   81.7538   14.5596 C.ar    1  UNL1        0.0297
     14 C          62.2841   83.2252   14.4992 C.ar    1  UNL1        0.0038
     15 C          63.9518   89.7214   12.9933 C.2     1  UNL1        0.2506
     16 O          62.8212   90.7066   13.0322 O.2     1  UNL1       -0.2698
     17 N          65.3673   90.2077   12.8942 N.am    1  UNL1       -0.2803
     18 H          66.1093   89.5612   12.8687 H       1  UNL1        0.1552
     19 C          65.6522   91.6792   12.8338 C.ar    1  UNL1        0.0520
     20 C          66.1941   92.3883   14.0395 C.ar    1  UNL1        0.0148
     21 C          66.4791   93.8597   13.9792 C.ar    1  UNL1        0.0028
     22 C          66.2222   94.6221   12.7132 C.ar    1  UNL1        0.0178
     23 C          66.5071   96.0936   12.6529 C.ar    1  UNL1        0.0031
     24 C          66.2502   96.8559   11.3869 C.ar    1  UNL1        0.0207
     25 C          65.7083   96.1469   10.1812 C.ar    1  UNL1        0.0988
     26 N          65.4234   94.6755   10.2415 N.ar    1  UNL1       -0.2438
     27 C          65.6803   93.9131   11.5075 C.ar    1  UNL1        0.0825
     28 C          65.3953   92.4416   11.5679 C.ar    1  UNL1        0.0338
@<TRIPOS>BOND
     1     1     2    1
     2     2     3   ar
     3     3     4   ar
     4     4     8    1
     5     8     9   ar
     6     9    10   ar
     7    10    11   ar
     8    11    12    1
     9    11    13   ar
    10    13    14   ar
    11     4     5   ar
    12     5     6   ar
    13     6     7   ar
    14     7    15    1
    15    15    16    2
    16    15    17   am
    17    17    19    1
    18    19    20   ar
    19    20    21   ar
    20    21    22   ar
    21    22    23   ar
    22    23    24   ar
    23    24    25   ar
    24    25    26   ar
    25    26    27   ar
    26    27    28   ar
    27     7     2   ar
    28    28    19   ar
    29    14     8   ar
    30    27    22   ar
    31    17    18    1
@<TRIPOS>MOLECULE
*****
 28 31 0 0 0
SMALL
GASTEIGER

@<TRIPOS>ATOM
      1 C          72.0059   77.1221   15.1158 C.3     1  UNL1        0.0522
      2 C          71.9631   75.8079   14.3940 C.ar    1  UNL1        0.0637
      3 N          72.1421   74.5279   15.1553 N.ar    1  UNL1       -0.2495
      4 C          72.0992   73.2137   14.4335 C.ar    1  UNL1        0.0809
      5 C          71.8773   73.1795   12.9503 C.ar    1  UNL1        0.0193
      6 C          71.6983   74.4595   12.1891 C.ar    1  UNL1        0.0072
      7 C          71.7412   75.7737   12.9109 C.ar    1  UNL1        0.0672
      8 C          72.2782   71.9337   15.1947 C.ar    1  UNL1        0.0178
      9 C          71.3774   71.6168   16.3515 C.ar    1  UNL1        0.0038
     10 C          71.5564   70.3368   17.1127 C.ar    1  UNL1        0.0297
     11 C          72.6363   69.3737   16.7172 C.ar    1  UNL1        0.1401
     12 F          72.8153   68.0937   17.4785 F       1  UNL1       -0.2042
     13 C          73.5371   69.6906   15.5604 C.ar    1  UNL1        0.0297
     14 C          73.3580   70.9707   14.7992 C.ar    1  UNL1        0.0038
     15 C          71.5621   77.0537   12.1496 C.2     1  UNL1        0.2506
     16 O          70.1855   77.6031   11.9193 O.2     1  UNL1       -0.2698
     17 N          72.7597   77.7844   11.6187 N.am    1  UNL1       -0.2803
     18 H          73.6633   77.4238   11.7699 H       1  UNL1        0.1552
     19 C          72.5807   79.0644   10.8574 C.ar    1  UNL1        0.0520
     20 C          72.6378   80.3793   11.5771 C.ar    1  UNL1        0.0148
     21 C          72.4588   81.6593   10.8159 C.ar    1  UNL1        0.0028
     22 C          72.2225   81.6245    9.3349 C.ar    1  UNL1        0.0178
     23 C          72.0435   82.9045    8.5737 C.ar    1  UNL1        0.0031
     24 C          71.8073   82.8696    7.0929 C.ar    1  UNL1        0.0207
     25 C          71.7501   81.5548    6.3733 C.ar    1  UNL1        0.0988
     26 N          71.9292   80.2748    7.1345 N.ar    1  UNL1       -0.2438
     27 C          72.1654   80.3096    8.6153 C.ar    1  UNL1        0.0825
     28 C          72.3445   79.0296    9.3766 C.ar    1  UNL1        0.0338
@<TRIPOS>BOND
     1     1     2    1
     2     2     3   ar
     3     3     4   ar
     4     4     8    1
     5     8     9   ar
     6     9    10   ar
     7    10    11   ar
     8    11    12    1
     9    11    13   ar
    10    13    14   ar
    11     4     5   ar
    12     5     6   ar
    13     6     7   ar
    14     7    15    1
    15    15    16    2
    16    15    17   am
    17    17    19    1
    18    19    20   ar
    19    20    21   ar
    20    21    22   ar
    21    22    23   ar
    22    23    24   ar
    23    24    25   ar
    24    25    26   ar
    25    26    27   ar
    26    27    28   ar
    27     7     2   ar
    28    28    19   ar
    29    14     8   ar
    30    27    22   ar
    31    17    18    1
@<TRIPOS>MOLECULE
*****
 28 31 0 0 0
SMALL
GASTEIGER

@<TRIPOS>ATOM
      1 C          70.4723   76.8240   13.9315 C.3     1  UNL1        0.0522
      2 C          71.4669   77.1226   12.8492 C.ar    1  UNL1        0.0637
      3 N          71.3530   78.3898   12.0546 N.ar    1  UNL1       -0.2495
      4 C          72.3476   78.6884   10.9723 C.ar    1  UNL1        0.0809
      5 C          73.4562   77.7197   10.6844 C.ar    1  UNL1        0.0193
      6 C          73.5701   76.4526   11.4789 C.ar    1  UNL1        0.0072
      7 C          72.5755   76.1540   12.5613 C.ar    1  UNL1        0.0672
      8 C          72.2337   79.9556   10.1777 C.ar    1  UNL1        0.0178
      9 C          72.4545   81.2811   10.8442 C.ar    1  UNL1        0.0038
     10 C          72.3406   82.5482   10.0497 C.ar    1  UNL1        0.0297
     11 C          72.0059   82.4899    8.5886 C.ar    1  UNL1        0.1401
     12 F          71.8920   83.7571    7.7941 F       1  UNL1       -0.2042
     13 C          71.7851   81.1644    7.9222 C.ar    1  UNL1        0.0297
     14 C          71.8990   79.8972    8.7168 C.ar    1  UNL1        0.0038
     15 C          72.6894   74.8868   13.3558 C.2     1  UNL1        0.2506
     16 O          73.5800   74.8352   14.5617 O.2     1  UNL1       -0.2698
     17 N          71.9127   73.6713   12.9445 N.am    1  UNL1       -0.2803
     18 H          71.3282   73.7052   12.1530 H       1  UNL1        0.1552
     19 C          72.0266   72.4041   13.7390 C.ar    1  UNL1        0.0520
     20 C          72.8315   71.2553   13.2074 C.ar    1  UNL1        0.0148
     21 C          72.9454   69.9882   14.0019 C.ar    1  UNL1        0.0028
     22 C          72.2546   69.8697   15.3281 C.ar    1  UNL1        0.0178
     23 C          72.3685   68.6026   16.1226 C.ar    1  UNL1        0.0031
     24 C          71.6777   68.4842   17.4488 C.ar    1  UNL1        0.0207
     25 C          70.8729   69.6329   17.9804 C.ar    1  UNL1        0.0988
     26 N          70.7589   70.9001   17.1859 N.ar    1  UNL1       -0.2438
     27 C          71.4497   71.0185   15.8597 C.ar    1  UNL1        0.0825
     28 C          71.3358   72.2857   15.0652 C.ar    1  UNL1        0.0338
@<TRIPOS>BOND
     1     1     2    1
     2     2     3   ar
     3     3     4   ar
     4     4     8    1
     5     8     9   ar
     6     9    10   ar
     7    10    11   ar
     8    11    12    1
     9    11    13   ar
    10    13    14   ar
    11     4     5   ar
    12     5     6   ar
    13     6     7   ar
    14     7    15    1
    15    15    16    2
    16    15    17   am
    17    17    19    1
    18    19    20   ar
    19    20    21   ar
    20    21    22   ar
    21    22    23   ar
    22    23    24   ar
    23    24    25   ar
    24    25    26   ar
    25    26    27   ar
    26    27    28   ar
    27     7     2   ar
    28    28    19   ar
    29    14     8   ar
    30    27    22   ar
    31    17    18    1
@<TRIPOS>MOLECULE
*****
 28 31 0 0 0
SMALL
GASTEIGER

@<TRIPOS>ATOM
      1 C          57.1834   92.3495   -1.2050 C.3     1  UNL1        0.0522
      2 C          57.8513   93.6523   -0.8782 C.ar    1  UNL1        0.0637
      3 N          59.2184   93.6601   -0.2609 N.ar    1  UNL1       -0.2495
      4 C          59.8863   94.9628    0.0658 C.ar    1  UNL1        0.0809
      5 C          59.1871   96.2577   -0.2247 C.ar    1  UNL1        0.0193
      6 C          57.8200   96.2499   -0.8419 C.ar    1  UNL1        0.0072
      7 C          57.1521   94.9471   -1.1687 C.ar    1  UNL1        0.0672
      8 C          61.2534   94.9706    0.6831 C.ar    1  UNL1        0.0178
      9 C          61.9588   93.6761    0.9598 C.ar    1  UNL1        0.0038
     10 C          63.3259   93.6840    1.5770 C.ar    1  UNL1        0.0297
     11 C          63.9876   94.9864    1.9176 C.ar    1  UNL1        0.1401
     12 F          65.3546   94.9943    2.5349 F       1  UNL1       -0.2042
     13 C          63.2821   96.2809    1.6409 C.ar    1  UNL1        0.0297
     14 C          61.9150   96.2730    1.0236 C.ar    1  UNL1        0.0038
     15 C          55.7851   94.9393   -1.7859 C.2     1  UNL1        0.2506
     16 O          54.8991   93.7388   -1.6311 O.2     1  UNL1       -0.2698
     17 N          55.3039   96.1319   -2.5580 N.am    1  UNL1       -0.2803
     18 H          55.8853   96.9198   -2.6597 H       1  UNL1        0.1552
     19 C          53.9367   96.1240   -3.1753 C.ar    1  UNL1        0.0520
     20 C          52.7198   96.0495   -2.3015 C.ar    1  UNL1        0.0148
     21 C          51.3527   96.0416   -2.9187 C.ar    1  UNL1        0.0028
     22 C          51.2025   96.1082   -4.4097 C.ar    1  UNL1        0.0178
     23 C          49.8354   96.1003   -5.0269 C.ar    1  UNL1        0.0031
     24 C          49.6853   96.1669   -6.5179 C.ar    1  UNL1        0.0207
     25 C          50.9023   96.2414   -7.3916 C.ar    1  UNL1        0.0988
     26 N          52.2693   96.2493   -6.7745 N.ar    1  UNL1       -0.2438
     27 C          52.4195   96.1827   -5.2835 C.ar    1  UNL1        0.0825
     28 C          53.7866   96.1906   -4.6662 C.ar    1  UNL1        0.0338
@<TRIPOS>BOND
     1     1     2    1
     2     2     3   ar
     3     3     4   ar
     4     4     8    1
     5     8     9   ar
     6     9    10   ar
     7    10    11   ar
     8    11    12    1
     9    11    13   ar
    10    13    14   ar
    11     4     5   ar
    12     5     6   ar
    13     6     7   ar
    14     7    15    1
    15    15    16    2
    16    15    17   am
    17    17    19    1
    18    19    20   ar
    19    20    21   ar
    20    21    22   ar
    21    22    23   ar
    22    23    24   ar
    23    24    25   ar
    24    25    26   ar
    25    26    27   ar
    26    27    28   ar
    27     7     2   ar
    28    28    19   ar
    29    14     8   ar
    30    27    22   ar
    31    17    18    1
@<TRIPOS>MOLECULE
*****
 28 31 0 0 0
SMALL
GASTEIGER

@<TRIPOS>ATOM
      1 C          70.0460   77.1451   13.3227 C.3     1  UNL1        0.0522
      2 C          71.1993   77.4217   12.4043 C.ar    1  UNL1        0.0637
      3 N          71.1287   78.5639   11.4345 N.ar    1  UNL1       -0.2495
      4 C          72.2820   78.8404   10.5162 C.ar    1  UNL1        0.0809
      5 C          73.5060   77.9747   10.5676 C.ar    1  UNL1        0.0193
      6 C          73.5766   76.8326   11.5374 C.ar    1  UNL1        0.0072
      7 C          72.4232   76.5561   12.4557 C.ar    1  UNL1        0.0672
      8 C          72.2114   79.9826    9.5464 C.ar    1  UNL1        0.0178
      9 C          72.1320   79.7118    8.0732 C.ar    1  UNL1        0.0038
     10 C          72.0614   80.8539    7.1034 C.ar    1  UNL1        0.0297
     11 C          72.0702   82.2669    7.6069 C.ar    1  UNL1        0.1401
     12 F          71.9996   83.4091    6.6371 F       1  UNL1       -0.2042
     13 C          72.1496   82.5377    9.0801 C.ar    1  UNL1        0.0297
     14 C          72.2202   81.3955   10.0499 C.ar    1  UNL1        0.0038
     15 C          72.4938   75.4139   13.4255 C.2     1  UNL1        0.2506
     16 O          73.4502   75.4682   14.5799 O.2     1  UNL1       -0.2698
     17 N          71.6081   74.2175   13.2409 N.am    1  UNL1       -0.2803
     18 H          70.9805   74.1818   12.4833 H       1  UNL1        0.1552
     19 C          71.6788   73.0753   14.2108 C.ar    1  UNL1        0.0520
     20 C          70.8432   73.0963   15.4564 C.ar    1  UNL1        0.0148
     21 C          70.9138   71.9542   16.4262 C.ar    1  UNL1        0.0028
     22 C          71.8200   70.7910   16.1504 C.ar    1  UNL1        0.0178
     23 C          71.8906   69.6489   17.1203 C.ar    1  UNL1        0.0031
     24 C          72.7967   68.4859   16.8445 C.ar    1  UNL1        0.0207
     25 C          73.6323   68.4649   15.5990 C.ar    1  UNL1        0.0988
     26 N          73.5617   69.6070   14.6291 N.ar    1  UNL1       -0.2438
     27 C          72.6556   70.7700   14.9049 C.ar    1  UNL1        0.0825
     28 C          72.5849   71.9122   13.9350 C.ar    1  UNL1        0.0338
@<TRIPOS>BOND
     1     1     2    1
     2     2     3   ar
     3     3     4   ar
     4     4     8    1
     5     8     9   ar
     6     9    10   ar
     7    10    11   ar
     8    11    12    1
     9    11    13   ar
    10    13    14   ar
    11     4     5   ar
    12     5     6   ar
    13     6     7   ar
    14     7    15    1
    15    15    16    2
    16    15    17   am
    17    17    19    1
    18    19    20   ar
    19    20    21   ar
    20    21    22   ar
    21    22    23   ar
    22    23    24   ar
    23    24    25   ar
    24    25    26   ar
    25    26    27   ar
    26    27    28   ar
    27     7     2   ar
    28    28    19   ar
    29    14     8   ar
    30    27    22   ar
    31    17    18    1
@<TRIPOS>MOLECULE
*****
 28 31 0 0 0
SMALL
GASTEIGER

@<TRIPOS>ATOM
      1 C          55.9651   92.4455   -2.0022 C.3     1  UNL1        0.0522
      2 C          57.2383   93.1928   -2.2675 C.ar    1  UNL1        0.0637
      3 N          58.4411   92.9559   -1.4029 N.ar    1  UNL1       -0.2495
      4 C          59.7143   93.7032   -1.6682 C.ar    1  UNL1        0.0809
      5 C          59.7848   94.6875   -2.7979 C.ar    1  UNL1        0.0193
      6 C          58.5821   94.9244   -3.6624 C.ar    1  UNL1        0.0072
      7 C          57.3089   94.1771   -3.3971 C.ar    1  UNL1        0.0672
      8 C          60.9170   93.4663   -0.8037 C.ar    1  UNL1        0.0178
      9 C          60.7909   92.6527    0.4501 C.ar    1  UNL1        0.0038
     10 C          61.9937   92.4158    1.3146 C.ar    1  UNL1        0.0297
     11 C          63.3225   92.9924    0.9252 C.ar    1  UNL1        0.1401
     12 F          64.5253   92.7555    1.7896 F       1  UNL1       -0.2042
     13 C          63.4486   93.8060   -0.3287 C.ar    1  UNL1        0.0297
     14 C          62.2458   94.0429   -1.1932 C.ar    1  UNL1        0.0038
     15 C          56.1061   94.4140   -4.2616 C.2     1  UNL1        0.2506
     16 O          55.7051   93.3931   -5.2848 O.2     1  UNL1       -0.2698
     17 N          55.3044   95.6718   -4.1028 N.am    1  UNL1       -0.2803
     18 H          55.5676   96.3419   -3.4313 H       1  UNL1        0.1552
     19 C          54.1017   95.9087   -4.9674 C.ar    1  UNL1        0.0520
     20 C          54.2496   95.9651   -6.4590 C.ar    1  UNL1        0.0148
     21 C          53.0469   96.2020   -7.3235 C.ar    1  UNL1        0.0028
     22 C          51.6962   96.3825   -6.6964 C.ar    1  UNL1        0.0178
     23 C          50.4936   96.6193   -7.5609 C.ar    1  UNL1        0.0031
     24 C          49.1430   96.7998   -6.9338 C.ar    1  UNL1        0.0207
     25 C          48.9951   96.7433   -5.4421 C.ar    1  UNL1        0.0988
     26 N          50.1977   96.5065   -4.5776 N.ar    1  UNL1       -0.2438
     27 C          51.5483   96.3260   -5.2048 C.ar    1  UNL1        0.0825
     28 C          52.7511   96.0891   -4.3402 C.ar    1  UNL1        0.0338
@<TRIPOS>BOND
     1     1     2    1
     2     2     3   ar
     3     3     4   ar
     4     4     8    1
     5     8     9   ar
     6     9    10   ar
     7    10    11   ar
     8    11    12    1
     9    11    13   ar
    10    13    14   ar
    11     4     5   ar
    12     5     6   ar
    13     6     7   ar
    14     7    15    1
    15    15    16    2
    16    15    17   am
    17    17    19    1
    18    19    20   ar
    19    20    21   ar
    20    21    22   ar
    21    22    23   ar
    22    23    24   ar
    23    24    25   ar
    24    25    26   ar
    25    26    27   ar
    26    27    28   ar
    27     7     2   ar
    28    28    19   ar
    29    14     8   ar
    30    27    22   ar
    31    17    18    1
@<TRIPOS>MOLECULE
*****
 28 31 0 0 0
SMALL
GASTEIGER

@<TRIPOS>ATOM
      1 C          62.0372   89.6668   10.4431 C.3     1  UNL1        0.0522
      2 C          61.2058   89.1431    9.3097 C.ar    1  UNL1        0.0637
      3 N          60.8332   90.0475    8.1725 N.ar    1  UNL1       -0.2495
      4 C          60.0018   89.5238    7.0392 C.ar    1  UNL1        0.0809
      5 C          59.5429   88.0957    7.0431 C.ar    1  UNL1        0.0193
      6 C          59.9155   87.1913    8.1803 C.ar    1  UNL1        0.0072
      7 C          60.7469   87.7150    9.3136 C.ar    1  UNL1        0.0672
      8 C          59.6292   90.4282    5.9020 C.ar    1  UNL1        0.0178
      9 C          58.1909   90.7824    5.6656 C.ar    1  UNL1        0.0038
     10 C          57.8184   91.6868    4.5284 C.ar    1  UNL1        0.0297
     11 C          58.8841   92.2369    3.6275 C.ar    1  UNL1        0.1401
     12 F          58.5115   93.1413    2.4903 F       1  UNL1       -0.2042
     13 C          60.3224   91.8827    3.8638 C.ar    1  UNL1        0.0297
     14 C          60.6949   90.9783    5.0011 C.ar    1  UNL1        0.0038
     15 C          61.1195   86.8107   10.4508 C.2     1  UNL1        0.2506
     16 O          60.4400   86.9581   11.7800 O.2     1  UNL1       -0.2698
     17 N          62.1716   85.7588   10.2590 N.am    1  UNL1       -0.2803
     18 H          62.6176   85.6620    9.3866 H       1  UNL1        0.1552
     19 C          62.5441   84.8545   11.3963 C.ar    1  UNL1        0.0520
     20 C          63.1097   85.4323   12.6597 C.ar    1  UNL1        0.0148
     21 C          63.4822   84.5280   13.7970 C.ar    1  UNL1        0.0028
     22 C          63.2892   83.0458   13.6708 C.ar    1  UNL1        0.0178
     23 C          63.6618   82.1415   14.8081 C.ar    1  UNL1        0.0031
     24 C          63.4688   80.6594   14.6819 C.ar    1  UNL1        0.0207
     25 C          62.9033   80.0815   13.4185 C.ar    1  UNL1        0.0988
     26 N          62.5308   80.9858   12.2812 N.ar    1  UNL1       -0.2438
     27 C          62.7237   82.4679   12.4074 C.ar    1  UNL1        0.0825
     28 C          62.3512   83.3723   11.2701 C.ar    1  UNL1        0.0338
@<TRIPOS>BOND
     1     1     2    1
     2     2     3   ar
     3     3     4   ar
     4     4     8    1
     5     8     9   ar
     6     9    10   ar
     7    10    11   ar
     8    11    12    1
     9    11    13   ar
    10    13    14   ar
    11     4     5   ar
    12     5     6   ar
    13     6     7   ar
    14     7    15    1
    15    15    16    2
    16    15    17   am
    17    17    19    1
    18    19    20   ar
    19    20    21   ar
    20    21    22   ar
    21    22    23   ar
    22    23    24   ar
    23    24    25   ar
    24    25    26   ar
    25    26    27   ar
    26    27    28   ar
    27     7     2   ar
    28    28    19   ar
    29    14     8   ar
    30    27    22   ar
    31    17    18    1
@<TRIPOS>MOLECULE
*****
 28 31 0 0 0
SMALL
GASTEIGER

@<TRIPOS>ATOM
      1 C          58.3885   92.7324   -2.7220 C.3     1  UNL1        0.0522
      2 C          58.7691   93.8062   -1.7463 C.ar    1  UNL1        0.0637
      3 N          60.0963   93.7504   -1.0496 N.ar    1  UNL1       -0.2495
      4 C          60.4769   94.8242   -0.0739 C.ar    1  UNL1        0.0809
      5 C          59.5302   95.9539    0.2051 C.ar    1  UNL1        0.0193
      6 C          58.2031   96.0097   -0.4917 C.ar    1  UNL1        0.0072
      7 C          57.8225   94.9359   -1.4674 C.ar    1  UNL1        0.0672
      8 C          61.8040   94.7684    0.6229 C.ar    1  UNL1        0.0178
      9 C          62.4970   93.4516    0.8121 C.ar    1  UNL1        0.0038
     10 C          63.8242   93.3958    1.5089 C.ar    1  UNL1        0.0297
     11 C          64.4584   94.6569    2.0164 C.ar    1  UNL1        0.1401
     12 F          65.7856   94.6011    2.7132 F       1  UNL1       -0.2042
     13 C          63.7654   95.9737    1.8272 C.ar    1  UNL1        0.0297
     14 C          62.4382   96.0294    1.1304 C.ar    1  UNL1        0.0038
     15 C          56.4954   94.9917   -2.1641 C.2     1  UNL1        0.2506
     16 O          55.4277   93.9940   -1.8251 O.2     1  UNL1       -0.2698
     17 N          56.2358   96.0451   -3.1999 N.am    1  UNL1       -0.2803
     18 H          56.9364   96.7000   -3.4224 H       1  UNL1        0.1552
     19 C          54.9085   96.1009   -3.8967 C.ar    1  UNL1        0.0520
     20 C          54.8235   95.8355   -5.3705 C.ar    1  UNL1        0.0148
     21 C          53.4963   95.8912   -6.0673 C.ar    1  UNL1        0.0028
     22 C          52.2541   96.2124   -5.2902 C.ar    1  UNL1        0.0178
     23 C          50.9270   96.2682   -5.9870 C.ar    1  UNL1        0.0031
     24 C          49.6849   96.5893   -5.2099 C.ar    1  UNL1        0.0207
     25 C          49.7699   96.8548   -3.7360 C.ar    1  UNL1        0.0988
     26 N          51.0970   96.7990   -3.0392 N.ar    1  UNL1       -0.2438
     27 C          52.3392   96.4778   -3.8163 C.ar    1  UNL1        0.0825
     28 C          53.6664   96.4221   -3.1196 C.ar    1  UNL1        0.0338
@<TRIPOS>BOND
     1     1     2    1
     2     2     3   ar
     3     3     4   ar
     4     4     8    1
     5     8     9   ar
     6     9    10   ar
     7    10    11   ar
     8    11    12    1
     9    11    13   ar
    10    13    14   ar
    11     4     5   ar
    12     5     6   ar
    13     6     7   ar
    14     7    15    1
    15    15    16    2
    16    15    17   am
    17    17    19    1
    18    19    20   ar
    19    20    21   ar
    20    21    22   ar
    21    22    23   ar
    22    23    24   ar
    23    24    25   ar
    24    25    26   ar
    25    26    27   ar
    26    27    28   ar
    27     7     2   ar
    28    28    19   ar
    29    14     8   ar
    30    27    22   ar
    31    17    18    1
