@<TRIPOS>MOLECULE
*****
 24 27 0 0 0
SMALL
GASTEIGER

@<TRIPOS>ATOM
      1 O          62.9028   89.3351   13.0207 O.2     1  UNL1       -0.2526
      2 C          63.9492   90.2213   13.6288 C.2     1  UNL1        0.3039
      3 N          64.3882   90.0001   15.0459 N.am    1  UNL1       -0.2901
      4 N          64.5566   91.3288   12.8196 N.am    1  UNL1       -0.2641
      5 C          64.1176   91.5499   11.4024 C.3     1  UNL1        0.0969
      6 C          64.7250   92.6573   10.5932 C.3     1  UNL1        0.0459
      7 C          65.7714   93.5436   11.2013 C.3     1  UNL1        0.1086
      8 C          66.2104   93.3224   12.6184 C.3     1  UNL1        0.0459
      9 C          65.6030   92.2150   13.4276 C.3     1  UNL1        0.0969
     10 H          65.0750   90.5818   15.4449 H       1  UNL1        0.1509
     11 N          66.3788   94.6510   10.3921 N.ar    1  UNL1       -0.2512
     12 C          67.1259   94.4922    9.1012 C.ar    1  UNL1        0.0966
     13 C          67.5546   95.8547    8.6430 C.ar    1  UNL1        0.0427
     14 C          67.0724   96.8556    9.6509 C.ar    1  UNL1        0.1217
     15 N          66.3457   96.1116   10.7319 N.ar    1  UNL1       -0.1677
     16 C          63.7808   88.8927   15.8550 C.3     1  UNL1        0.0774
     17 C          63.0039   88.4352   17.0537 C.3     1  UNL1        0.0259
     18 C          63.5058   87.4322   16.0578 C.3     1  UNL1        0.0420
     19 C          63.6369   86.0098   15.5998 C.ar    1  UNL1       -0.0208
     20 C          62.6036   84.9966   15.9944 C.ar    1  UNL1       -0.0042
     21 C          62.7347   83.5743   15.5364 C.ar    1  UNL1       -0.0003
     22 C          63.8990   83.1652   14.6838 C.ar    1  UNL1       -0.0000
     23 C          64.9323   84.1784   14.2892 C.ar    1  UNL1       -0.0003
     24 C          64.8012   85.6007   14.7472 C.ar    1  UNL1       -0.0042
@<TRIPOS>BOND
     1     1     2    2
     2     2     3   am
     3     3    16    1
     4    16    17    1
     5    17    18    1
     6    18    19    1
     7    19    20   ar
     8    20    21   ar
     9    21    22   ar
    10    22    23   ar
    11    23    24   ar
    12     2     4   am
    13     4     5    1
    14     5     6    1
    15     6     7    1
    16     7    11    1
    17    11    12   ar
    18    12    13   ar
    19    13    14   ar
    20    14    15   ar
    21     7     8    1
    22     8     9    1
    23    18    16    1
    24    24    19   ar
    25     9     4    1
    26    15    11   ar
    27     3    10    1
@<TRIPOS>MOLECULE
*****
 24 27 0 0 0
SMALL
GASTEIGER

@<TRIPOS>ATOM
      1 O          62.6532   90.7522   10.1112 O.2     1  UNL1       -0.2526
      2 C          62.9827   90.1638   11.4511 C.2     1  UNL1        0.3039
      3 N          62.2382   88.9588   11.9446 N.am    1  UNL1       -0.2901
      4 N          64.0566   90.7805   12.2974 N.am    1  UNL1       -0.2641
      5 C          64.8011   91.9856   11.8038 C.3     1  UNL1        0.0969
      6 C          65.8751   92.6023   12.6501 C.3     1  UNL1        0.0459
      7 C          66.2046   92.0139   13.9901 C.3     1  UNL1        0.1086
      8 C          65.4601   90.8089   14.4836 C.3     1  UNL1        0.0459
      9 C          64.3861   90.1922   13.6373 C.3     1  UNL1        0.0969
     10 H          62.4544   88.5726   12.8240 H       1  UNL1        0.1509
     11 N          67.2785   92.6306   14.8364 N.ar    1  UNL1       -0.2512
     12 C          68.1710   91.9024   15.7972 C.ar    1  UNL1        0.0966
     13 C          69.0927   92.9055   16.4252 C.ar    1  UNL1        0.0427
     14 C          68.7698   94.2538   15.8524 C.ar    1  UNL1        0.1217
     15 N          67.6486   94.0838   14.8705 N.ar    1  UNL1       -0.1677
     16 C          61.1642   88.3421   11.0983 C.3     1  UNL1        0.0774
     17 C          59.7125   88.1754   10.7596 C.3     1  UNL1        0.0259
     18 C          60.7558   87.4406    9.9711 C.3     1  UNL1        0.0420
     19 C          61.1223   86.4959    8.8651 C.ar    1  UNL1       -0.0208
     20 C          60.0981   86.1070    7.8407 C.ar    1  UNL1       -0.0042
     21 C          60.4646   85.1624    6.7347 C.ar    1  UNL1       -0.0003
     22 C          61.8555   84.6066    6.6532 C.ar    1  UNL1       -0.0000
     23 C          62.8798   84.9956    7.6776 C.ar    1  UNL1       -0.0003
     24 C          62.5132   85.9402    8.7836 C.ar    1  UNL1       -0.0042
@<TRIPOS>BOND
     1     1     2    2
     2     2     3   am
     3     3    16    1
     4    16    17    1
     5    17    18    1
     6    18    19    1
     7    19    20   ar
     8    20    21   ar
     9    21    22   ar
    10    22    23   ar
    11    23    24   ar
    12     2     4   am
    13     4     5    1
    14     5     6    1
    15     6     7    1
    16     7    11    1
    17    11    12   ar
    18    12    13   ar
    19    13    14   ar
    20    14    15   ar
    21     7     8    1
    22     8     9    1
    23    18    16    1
    24    24    19   ar
    25     9     4    1
    26    15    11   ar
    27     3    10    1
@<TRIPOS>MOLECULE
*****
 24 27 0 0 0
SMALL
GASTEIGER

@<TRIPOS>ATOM
      1 O          64.6943   88.4527   14.9427 O.2     1  UNL1       -0.2526
      2 C          63.9680   87.9139   13.7459 C.2     1  UNL1        0.3039
      3 N          63.5993   88.8303   12.6171 N.am    1  UNL1       -0.2901
      4 N          63.6105   86.4588   13.6779 N.am    1  UNL1       -0.2641
      5 C          63.9793   85.5424   14.8068 C.3     1  UNL1        0.0969
      6 C          63.6218   84.0872   14.7389 C.3     1  UNL1        0.0459
      7 C          62.8955   83.5484   13.5421 C.3     1  UNL1        0.1086
      8 C          62.5268   84.4648   12.4133 C.3     1  UNL1        0.0459
      9 C          62.8843   85.9199   12.4812 C.3     1  UNL1        0.0969
     10 H          63.1226   88.4767   11.8316 H       1  UNL1        0.1509
     11 N          62.5380   82.0932   13.4742 N.ar    1  UNL1       -0.2512
     12 C          63.1996   81.0622   12.6085 C.ar    1  UNL1        0.0966
     13 C          62.5266   79.7453   12.8593 C.ar    1  UNL1        0.0427
     14 C          61.4491   79.9624   13.8800 C.ar    1  UNL1        0.1217
     15 N          61.4562   81.4134   14.2600 N.ar    1  UNL1       -0.1677
     16 C          63.9568   90.2855   12.6850 C.3     1  UNL1        0.0774
     17 C          63.7138   91.7040   12.2620 C.3     1  UNL1        0.0259
     18 C          64.8190   91.3875   13.2256 C.3     1  UNL1        0.0420
     19 C          65.9548   91.8410   14.0941 C.ar    1  UNL1       -0.0208
     20 C          65.6992   92.2332   15.5191 C.ar    1  UNL1       -0.0042
     21 C          66.8350   92.6867   16.3875 C.ar    1  UNL1       -0.0003
     22 C          68.2266   92.7479   15.8309 C.ar    1  UNL1       -0.0000
     23 C          68.4823   92.3556   14.4058 C.ar    1  UNL1       -0.0003
     24 C          67.3464   91.9022   13.5374 C.ar    1  UNL1       -0.0042
@<TRIPOS>BOND
     1     1     2    2
     2     2     3   am
     3     3    16    1
     4    16    17    1
     5    17    18    1
     6    18    19    1
     7    19    20   ar
     8    20    21   ar
     9    21    22   ar
    10    22    23   ar
    11    23    24   ar
    12     2     4   am
    13     4     5    1
    14     5     6    1
    15     6     7    1
    16     7    11    1
    17    11    12   ar
    18    12    13   ar
    19    13    14   ar
    20    14    15   ar
    21     7     8    1
    22     8     9    1
    23    18    16    1
    24    24    19   ar
    25     9     4    1
    26    15    11   ar
    27     3    10    1
@<TRIPOS>MOLECULE
*****
 24 27 0 0 0
SMALL
GASTEIGER

@<TRIPOS>ATOM
      1 O          63.7107   90.1036   12.2945 O.2     1  UNL1       -0.2526
      2 C          64.2155   89.2093   13.3879 C.2     1  UNL1        0.3039
      3 N          65.0952   89.7674   14.4671 N.am    1  UNL1       -0.2901
      4 N          63.8406   87.7570   13.4020 N.am    1  UNL1       -0.2641
      5 C          62.9609   87.1990   12.3228 C.3     1  UNL1        0.0969
      6 C          62.5859   85.7467   12.3369 C.3     1  UNL1        0.0459
      7 C          63.0908   84.8524   13.4303 C.3     1  UNL1        0.1086
      8 C          63.9705   85.4104   14.5095 C.3     1  UNL1        0.0459
      9 C          64.3454   86.8627   14.4954 C.3     1  UNL1        0.0969
     10 H          65.4266   89.1804   15.1847 H       1  UNL1        0.1509
     11 N          62.7159   83.4001   13.4445 N.ar    1  UNL1       -0.2512
     12 C          62.8443   82.4451   12.2949 C.ar    1  UNL1        0.0966
     13 C          62.3545   81.1025   12.7506 C.ar    1  UNL1        0.0427
     14 C          61.9233   81.2277   14.1819 C.ar    1  UNL1        0.1217
     15 N          62.1467   82.6477   14.6107 N.ar    1  UNL1       -0.1677
     16 C          65.4701   91.2197   14.4529 C.3     1  UNL1        0.0774
     17 C          65.6655   92.5180   15.1783 C.3     1  UNL1        0.0259
     18 C          65.9242   92.4368   13.7030 C.3     1  UNL1        0.0420
     19 C          66.3357   93.0927   12.4183 C.ar    1  UNL1       -0.0208
     20 C          66.9350   92.2715   11.3153 C.ar    1  UNL1       -0.0042
     21 C          67.3465   92.9274   10.0307 C.ar    1  UNL1       -0.0003
     22 C          67.1587   94.4044    9.8489 C.ar    1  UNL1       -0.0000
     23 C          66.5594   95.2256   10.9518 C.ar    1  UNL1       -0.0003
     24 C          66.1479   94.5698   12.2365 C.ar    1  UNL1       -0.0042
@<TRIPOS>BOND
     1     1     2    2
     2     2     3   am
     3     3    16    1
     4    16    17    1
     5    17    18    1
     6    18    19    1
     7    19    20   ar
     8    20    21   ar
     9    21    22   ar
    10    22    23   ar
    11    23    24   ar
    12     2     4   am
    13     4     5    1
    14     5     6    1
    15     6     7    1
    16     7    11    1
    17    11    12   ar
    18    12    13   ar
    19    13    14   ar
    20    14    15   ar
    21     7     8    1
    22     8     9    1
    23    18    16    1
    24    24    19   ar
    25     9     4    1
    26    15    11   ar
    27     3    10    1
@<TRIPOS>MOLECULE
*****
 24 27 0 0 0
SMALL
GASTEIGER

@<TRIPOS>ATOM
      1 O          62.9131   88.7336   11.4784 O.2     1  UNL1       -0.2526
      2 C          63.4110   87.9454   12.6536 C.2     1  UNL1        0.3039
      3 N          64.1144   88.6423   13.7803 N.am    1  UNL1       -0.2901
      4 N          63.2054   86.4604   12.7019 N.am    1  UNL1       -0.2641
      5 C          62.5020   85.7635   11.5751 C.3     1  UNL1        0.0969
      6 C          62.2964   84.2785   11.6234 C.3     1  UNL1        0.0459
      7 C          62.7943   83.4902   12.7986 C.3     1  UNL1        0.1086
      8 C          63.4977   84.1871   13.9253 C.3     1  UNL1        0.0459
      9 C          63.7032   85.6721   13.8770 C.3     1  UNL1        0.0969
     10 H          64.4412   88.1249   14.5515 H       1  UNL1        0.1509
     11 N          62.5887   82.0052   12.8469 N.ar    1  UNL1       -0.2512
     12 C          61.9327   81.2416   13.9589 C.ar    1  UNL1        0.0966
     13 C          61.9415   79.7875   13.5910 C.ar    1  UNL1        0.0427
     14 C          62.6031   79.6523   12.2515 C.ar    1  UNL1        0.1217
     15 N          63.0030   81.0229   11.7917 N.ar    1  UNL1       -0.1677
     16 C          64.3200   90.1273   13.7320 C.3     1  UNL1        0.0774
     17 C          63.8176   91.4977   13.3860 C.3     1  UNL1        0.0259
     18 C          65.1784   91.3291   13.9942 C.3     1  UNL1        0.0420
     19 C          66.4597   91.9256   14.4967 C.ar    1  UNL1       -0.0208
     20 C          67.7175   91.7888   13.6909 C.ar    1  UNL1       -0.0042
     21 C          68.9987   92.3853   14.1934 C.ar    1  UNL1       -0.0003
     22 C          69.0222   93.1186   15.5017 C.ar    1  UNL1       -0.0000
     23 C          67.7644   93.2555   16.3075 C.ar    1  UNL1       -0.0003
     24 C          66.4832   92.6590   15.8050 C.ar    1  UNL1       -0.0042
@<TRIPOS>BOND
     1     1     2    2
     2     2     3   am
     3     3    16    1
     4    16    17    1
     5    17    18    1
     6    18    19    1
     7    19    20   ar
     8    20    21   ar
     9    21    22   ar
    10    22    23   ar
    11    23    24   ar
    12     2     4   am
    13     4     5    1
    14     5     6    1
    15     6     7    1
    16     7    11    1
    17    11    12   ar
    18    12    13   ar
    19    13    14   ar
    20    14    15   ar
    21     7     8    1
    22     8     9    1
    23    18    16    1
    24    24    19   ar
    25     9     4    1
    26    15    11   ar
    27     3    10    1
@<TRIPOS>MOLECULE
*****
 24 27 0 0 0
SMALL
GASTEIGER

@<TRIPOS>ATOM
      1 O          63.4250   89.4765   12.0853 O.2     1  UNL1       -0.2526
      2 C          63.9537   88.6107   13.1903 C.2     1  UNL1        0.3039
      3 N          64.8069   89.2092   14.2691 N.am    1  UNL1       -0.2901
      4 N          63.6291   87.1465   13.2164 N.am    1  UNL1       -0.2641
      5 C          62.7758   86.5481   12.1375 C.3     1  UNL1        0.0969
      6 C          62.4512   85.0839   12.1636 C.3     1  UNL1        0.0459
      7 C          62.9799   84.2181   13.2686 C.3     1  UNL1        0.1086
      8 C          63.8331   84.8165   14.3475 C.3     1  UNL1        0.0459
      9 C          64.1577   86.2807   14.3213 C.3     1  UNL1        0.0969
     10 H          65.1538   88.6409   14.9943 H       1  UNL1        0.1509
     11 N          62.6553   82.7538   13.2947 N.ar    1  UNL1       -0.2512
     12 C          61.7987   82.0586   14.3111 C.ar    1  UNL1        0.0966
     13 C          61.7443   80.6028   13.9536 C.ar    1  UNL1        0.0427
     14 C          62.5672   80.3983   12.7163 C.ar    1  UNL1        0.1217
     15 N          63.1303   81.7277   12.3091 N.ar    1  UNL1       -0.1677
     16 C          65.1315   90.6734   14.2430 C.3     1  UNL1        0.0774
     17 C          65.1739   92.0069   14.9284 C.3     1  UNL1        0.0259
     18 C          65.6512   91.8759   13.5124 C.3     1  UNL1        0.0420
     19 C          66.2269   92.4945   12.2730 C.ar    1  UNL1       -0.0208
     20 C          65.6301   93.7529   11.7162 C.ar    1  UNL1       -0.0042
     21 C          66.2058   94.3714   10.4769 C.ar    1  UNL1       -0.0003
     22 C          67.3783   93.7315    9.7944 C.ar    1  UNL1       -0.0000
     23 C          67.9751   92.4731   10.3512 C.ar    1  UNL1       -0.0003
     24 C          67.3994   91.8545   11.5905 C.ar    1  UNL1       -0.0042
@<TRIPOS>BOND
     1     1     2    2
     2     2     3   am
     3     3    16    1
     4    16    17    1
     5    17    18    1
     6    18    19    1
     7    19    20   ar
     8    20    21   ar
     9    21    22   ar
    10    22    23   ar
    11    23    24   ar
    12     2     4   am
    13     4     5    1
    14     5     6    1
    15     6     7    1
    16     7    11    1
    17    11    12   ar
    18    12    13   ar
    19    13    14   ar
    20    14    15   ar
    21     7     8    1
    22     8     9    1
    23    18    16    1
    24    24    19   ar
    25     9     4    1
    26    15    11   ar
    27     3    10    1
@<TRIPOS>MOLECULE
*****
 24 27 0 0 0
SMALL
GASTEIGER

@<TRIPOS>ATOM
      1 O          63.2786   88.6614   13.2436 O.2     1  UNL1       -0.2526
      2 C          63.2319   89.3371   11.9052 C.2     1  UNL1        0.3039
      3 N          62.5098   88.6877   10.7620 N.am    1  UNL1       -0.2901
      4 N          63.9074   90.6621   11.7100 N.am    1  UNL1       -0.2641
      5 C          64.6295   91.3114   12.8532 C.3     1  UNL1        0.0969
      6 C          65.3050   92.6364   12.6580 C.3     1  UNL1        0.0459
      7 C          65.2584   93.3121   11.3195 C.3     1  UNL1        0.1086
      8 C          64.5363   92.6627   10.1764 C.3     1  UNL1        0.0459
      9 C          63.8608   91.3377   10.3716 C.3     1  UNL1        0.0969
     10 H          62.4792   89.1312    9.8836 H       1  UNL1        0.1509
     11 N          65.9339   94.6371   11.1243 N.ar    1  UNL1       -0.2512
     12 C          66.5683   95.1249    9.8556 C.ar    1  UNL1        0.0966
     13 C          67.1200   96.4962   10.1107 C.ar    1  UNL1        0.0427
     14 C          66.8267   96.8559   11.5371 C.ar    1  UNL1        0.1217
     15 N          66.0936   95.7069   12.1635 N.ar    1  UNL1       -0.1677
     16 C          61.8343   87.3627   10.9572 C.3     1  UNL1        0.0774
     17 C          60.5849   86.5333   10.9853 C.3     1  UNL1        0.0259
     18 C          61.9138   85.8973   11.2672 C.3     1  UNL1        0.0420
     19 C          62.7271   84.6840   11.6090 C.ar    1  UNL1       -0.0208
     20 C          63.3800   83.8873   10.5187 C.ar    1  UNL1       -0.0042
     21 C          64.1931   82.6741   10.8604 C.ar    1  UNL1       -0.0003
     22 C          64.3534   82.2576   12.2925 C.ar    1  UNL1       -0.0000
     23 C          63.7004   83.0543   13.3828 C.ar    1  UNL1       -0.0003
     24 C          62.8873   84.2675   13.0411 C.ar    1  UNL1       -0.0042
@<TRIPOS>BOND
     1     1     2    2
     2     2     3   am
     3     3    16    1
     4    16    17    1
     5    17    18    1
     6    18    19    1
     7    19    20   ar
     8    20    21   ar
     9    21    22   ar
    10    22    23   ar
    11    23    24   ar
    12     2     4   am
    13     4     5    1
    14     5     6    1
    15     6     7    1
    16     7    11    1
    17    11    12   ar
    18    12    13   ar
    19    13    14   ar
    20    14    15   ar
    21     7     8    1
    22     8     9    1
    23    18    16    1
    24    24    19   ar
    25     9     4    1
    26    15    11   ar
    27     3    10    1
@<TRIPOS>MOLECULE
*****
 24 27 0 0 0
SMALL
GASTEIGER

@<TRIPOS>ATOM
      1 O          61.2965   87.8351   11.1581 O.2     1  UNL1       -0.2526
      2 C          61.9305   89.1580   10.8449 C.2     1  UNL1        0.3039
      3 N          61.5618   89.8873    9.5870 N.am    1  UNL1       -0.2901
      4 N          62.9331   89.7516   11.7895 N.am    1  UNL1       -0.2641
      5 C          63.3018   89.0223   13.0474 C.3     1  UNL1        0.0969
      6 C          64.3044   89.6159   13.9921 C.3     1  UNL1        0.0459
      7 C          64.9384   90.9388   13.6789 C.3     1  UNL1        0.1086
      8 C          64.5697   91.6681   12.4210 C.3     1  UNL1        0.0459
      9 C          63.5671   91.0745   11.4764 C.3     1  UNL1        0.0969
     10 H          61.9779   90.7556    9.3815 H       1  UNL1        0.1509
     11 N          65.9410   91.5324   14.6235 N.ar    1  UNL1       -0.2512
     12 C          67.4267   91.3321   14.5725 C.ar    1  UNL1        0.0966
     13 C          68.0379   92.1065   15.7025 C.ar    1  UNL1        0.0427
     14 C          66.9299   92.7853   16.4519 C.ar    1  UNL1        0.1217
     15 N          65.6340   92.4305   15.7850 N.ar    1  UNL1       -0.1677
     16 C          60.5592   89.2937    8.6424 C.3     1  UNL1        0.0774
     17 C          59.7036   88.1387    8.2136 C.3     1  UNL1        0.0259
     18 C          59.6782   89.4206    7.4350 C.3     1  UNL1        0.0420
     19 C          59.1550   90.2339    6.2883 C.ar    1  UNL1       -0.0208
     20 C          57.6760   90.3740    6.0814 C.ar    1  UNL1       -0.0042
     21 C          57.1528   91.1873    4.9348 C.ar    1  UNL1       -0.0003
     22 C          58.1087   91.8606    3.9951 C.ar    1  UNL1       -0.0000
     23 C          59.5877   91.7206    4.2021 C.ar    1  UNL1       -0.0003
     24 C          60.1109   90.9073    5.3487 C.ar    1  UNL1       -0.0042
@<TRIPOS>BOND
     1     1     2    2
     2     2     3   am
     3     3    16    1
     4    16    17    1
     5    17    18    1
     6    18    19    1
     7    19    20   ar
     8    20    21   ar
     9    21    22   ar
    10    22    23   ar
    11    23    24   ar
    12     2     4   am
    13     4     5    1
    14     5     6    1
    15     6     7    1
    16     7    11    1
    17    11    12   ar
    18    12    13   ar
    19    13    14   ar
    20    14    15   ar
    21     7     8    1
    22     8     9    1
    23    18    16    1
    24    24    19   ar
    25     9     4    1
    26    15    11   ar
    27     3    10    1
@<TRIPOS>MOLECULE
*****
 24 27 0 0 0
SMALL
GASTEIGER

@<TRIPOS>ATOM
      1 O          62.9643   88.3226   12.2458 O.2     1  UNL1       -0.2526
      2 C          63.4119   87.2530   13.1975 C.2     1  UNL1        0.3039
      3 N          63.9648   87.6275   14.5406 N.am    1  UNL1       -0.2901
      4 N          63.3067   85.8088   12.8060 N.am    1  UNL1       -0.2641
      5 C          62.7538   85.4342   11.4628 C.3     1  UNL1        0.0969
      6 C          62.6486   83.9901   11.0712 C.3     1  UNL1        0.0459
      7 C          63.0962   82.9205   12.0229 C.3     1  UNL1        0.1086
      8 C          63.6491   83.2950   13.3660 C.3     1  UNL1        0.0459
      9 C          63.7543   84.7392   13.7575 C.3     1  UNL1        0.0969
     10 H          64.2585   86.9255   15.1652 H       1  UNL1        0.1509
     11 N          62.9910   81.4763   11.6313 N.ar    1  UNL1       -0.2512
     12 C          63.2238   80.9154   10.2598 C.ar    1  UNL1        0.0966
     13 C          63.0112   79.4319   10.3234 C.ar    1  UNL1        0.0427
     14 C          62.6469   79.0759   11.7343 C.ar    1  UNL1        0.1217
     15 N          62.6345   80.3394   12.5426 N.ar    1  UNL1       -0.1677
     16 C          64.0700   89.0717   14.9322 C.3     1  UNL1        0.0774
     17 C          63.8341   90.1680   15.9283 C.3     1  UNL1        0.0259
     18 C          64.4882   90.4767   14.6142 C.3     1  UNL1        0.0420
     19 C          65.1072   91.4660   13.6718 C.ar    1  UNL1       -0.0208
     20 C          64.5634   91.6201   12.2824 C.ar    1  UNL1       -0.0042
     21 C          65.1825   92.6094   11.3402 C.ar    1  UNL1       -0.0003
     22 C          66.3454   93.4447   11.7873 C.ar    1  UNL1       -0.0000
     23 C          66.8893   93.2906   13.1767 C.ar    1  UNL1       -0.0003
     24 C          66.2702   92.3013   14.1189 C.ar    1  UNL1       -0.0042
@<TRIPOS>BOND
     1     1     2    2
     2     2     3   am
     3     3    16    1
     4    16    17    1
     5    17    18    1
     6    18    19    1
     7    19    20   ar
     8    20    21   ar
     9    21    22   ar
    10    22    23   ar
    11    23    24   ar
    12     2     4   am
    13     4     5    1
    14     5     6    1
    15     6     7    1
    16     7    11    1
    17    11    12   ar
    18    12    13   ar
    19    13    14   ar
    20    14    15   ar
    21     7     8    1
    22     8     9    1
    23    18    16    1
    24    24    19   ar
    25     9     4    1
    26    15    11   ar
    27     3    10    1
