@<TRIPOS>MOLECULE
*****
 30 33 0 0 0
SMALL
GASTEIGER

@<TRIPOS>ATOM
      1 C          61.0230   86.9558    9.4468 C.ar    1  UNL1        0.1103
      2 C          61.2125   88.4273    9.6680 C.ar    1  UNL1        0.0185
      3 C          60.5928   89.4137    8.7231 C.ar    1  UNL1       -0.0013
      4 C          59.7835   88.9286    7.5570 C.ar    1  UNL1       -0.0024
      5 C          59.5940   87.4572    7.3358 C.ar    1  UNL1       -0.0013
      6 C          60.2137   86.4707    8.2807 C.ar    1  UNL1        0.0185
      7 S          61.6428   85.9694   10.3917 S.O2    1  UNL1        0.0289
      8 O          60.9253   86.6173   11.5386 O.2     1  UNL1       -0.1642
      9 O          62.3603   85.3215    9.2448 O.2     1  UNL1       -0.1642
     10 C          64.1218   82.0238   14.1714 C.3     1  UNL1        0.0521
     11 C          63.5021   83.0102   13.2265 C.ar    1  UNL1        0.0595
     12 C          63.3467   82.6631   11.7755 C.ar    1  UNL1        0.0161
     13 C          62.7269   83.6495   10.8306 C.ar    1  UNL1        0.0215
     14 C          62.2625   84.9830   11.3366 C.ar    1  UNL1        0.1293
     15 C          62.4179   85.3301   12.7876 C.ar    1  UNL1        0.1171
     16 N          63.0377   84.3436   13.7326 N.ar    1  UNL1       -0.2468
     17 C          59.1637   89.9151    6.6120 C.3     1  UNL1        0.1177
     18 N          60.0035   90.5731    5.5576 N.am    1  UNL1       -0.2847
     19 C          59.4071   91.6285    4.6742 C.2     1  UNL1        0.3047
     20 O          57.9708   92.0258    4.8453 O.2     1  UNL1       -0.2526
     21 N          60.2469   92.2866    3.6199 N.am    1  UNL1       -0.2560
     22 C          59.7911   93.3519    2.6673 C.3     1  UNL1        0.1218
     23 C          60.9524   93.7186    1.7916 C.ar    1  UNL1       -0.0016
     24 C          61.0929   94.7078    0.6729 C.ar    1  UNL1        0.0178
     25 C          62.4069   94.8583   -0.0346 C.ar    1  UNL1        0.0986
     26 N          63.5805   94.0195    0.3767 N.ar    1  UNL1       -0.2426
     27 C          63.4401   93.0303    1.4955 C.ar    1  UNL1        0.0960
     28 C          62.1260   92.8798    2.2029 C.ar    1  UNL1        0.0146
     29 C          61.6900   91.9948    3.3328 C.3     1  UNL1        0.1233
     30 H          60.9462   90.3123    5.4454 H       1  UNL1        0.1513
@<TRIPOS>BOND
     1    10    11    1
     2    11    12   ar
     3    12    13   ar
     4    13    14   ar
     5    14     7    1
     6     7     8    2
     7     7     9    2
     8     7     1    1
     9     1     2   ar
    10     2     3   ar
    11     3     4   ar
    12     4    17    1
    13    17    18    1
    14    18    19   am
    15    19    20    2
    16    19    21   am
    17    21    22    1
    18    22    23    1
    19    23    24   ar
    20    24    25   ar
    21    25    26   ar
    22    26    27   ar
    23    27    28   ar
    24    28    29    1
    25     4     5   ar
    26     5     6   ar
    27    14    15   ar
    28    15    16   ar
    29    16    11   ar
    30     6     1   ar
    31    29    21    1
    32    28    23   ar
    33    18    30    1
@<TRIPOS>MOLECULE
*****
 30 33 0 0 0
SMALL
GASTEIGER

@<TRIPOS>ATOM
      1 C          65.0307   91.6772   12.9863 C.ar    1  UNL1        0.1103
      2 C          63.8393   90.8119   12.7001 C.ar    1  UNL1        0.0185
      3 C          63.3355   89.8600   13.7441 C.ar    1  UNL1       -0.0013
      4 C          64.0232   89.7733   15.0744 C.ar    1  UNL1       -0.0024
      5 C          65.2146   90.6385   15.3606 C.ar    1  UNL1       -0.0013
      6 C          65.7184   91.5905   14.3165 C.ar    1  UNL1        0.0185
      7 S          65.5344   92.6291   11.9422 S.O2    1  UNL1        0.0289
      8 O          66.3941   93.3022   12.9707 O.2     1  UNL1       -0.1642
      9 O          64.6747   91.9560   10.9137 O.2     1  UNL1       -0.1642
     10 C          67.5494   96.4367    7.7659 C.3     1  UNL1        0.0521
     11 C          67.0457   95.4848    8.8100 C.ar    1  UNL1        0.0595
     12 C          67.6256   94.1050    8.9093 C.ar    1  UNL1        0.0161
     13 C          67.1218   93.1531    9.9533 C.ar    1  UNL1        0.0215
     14 C          66.0382   93.5810   10.8981 C.ar    1  UNL1        0.1293
     15 C          65.4583   94.9608   10.7989 C.ar    1  UNL1        0.1171
     16 N          65.9621   95.9127    9.7547 N.ar    1  UNL1       -0.2468
     17 C          63.5194   88.8214   16.1185 C.3     1  UNL1        0.1177
     18 N          63.1215   87.4274   15.7330 N.am    1  UNL1       -0.2847
     19 C          64.1276   86.5052   15.1108 C.2     1  UNL1        0.3047
     20 O          65.5317   86.9769   14.8741 O.2     1  UNL1       -0.2526
     21 N          63.7297   85.1112   14.7254 N.am    1  UNL1       -0.2560
     22 C          64.6216   84.0815   14.0976 C.3     1  UNL1        0.1218
     23 C          63.8132   82.8361   13.8842 C.ar    1  UNL1       -0.0016
     24 C          64.1644   81.4989   13.3025 C.ar    1  UNL1        0.0178
     25 C          63.1241   80.4218   13.2166 C.ar    1  UNL1        0.0986
     26 N          61.7325   80.6819   13.7125 N.ar    1  UNL1       -0.2426
     27 C          61.3813   82.0191   14.2943 C.ar    1  UNL1        0.0960
     28 C          62.4217   83.0962   14.3801 C.ar    1  UNL1        0.0146
     29 C          62.3701   84.5023   14.9000 C.3     1  UNL1        0.1233
     30 H          62.2000   87.1178   15.8884 H       1  UNL1        0.1513
@<TRIPOS>BOND
     1    10    11    1
     2    11    12   ar
     3    12    13   ar
     4    13    14   ar
     5    14     7    1
     6     7     8    2
     7     7     9    2
     8     7     1    1
     9     1     2   ar
    10     2     3   ar
    11     3     4   ar
    12     4    17    1
    13    17    18    1
    14    18    19   am
    15    19    20    2
    16    19    21   am
    17    21    22    1
    18    22    23    1
    19    23    24   ar
    20    24    25   ar
    21    25    26   ar
    22    26    27   ar
    23    27    28   ar
    24    28    29    1
    25     4     5   ar
    26     5     6   ar
    27    14    15   ar
    28    15    16   ar
    29    16    11   ar
    30     6     1   ar
    31    29    21    1
    32    28    23   ar
    33    18    30    1
@<TRIPOS>MOLECULE
*****
 30 33 0 0 0
SMALL
GASTEIGER

@<TRIPOS>ATOM
      1 C          63.6769   86.2111   13.6680 C.ar    1  UNL1        0.1103
      2 C          64.4218   86.6901   14.8787 C.ar    1  UNL1        0.0185
      3 C          64.7266   88.1496   15.0430 C.ar    1  UNL1       -0.0013
      4 C          64.2865   89.1301   13.9967 C.ar    1  UNL1       -0.0024
      5 C          63.5417   88.6512   12.7860 C.ar    1  UNL1       -0.0013
      6 C          63.2369   87.1917   12.6216 C.ar    1  UNL1        0.0185
      7 S          63.3721   84.7517   13.5037 S.O2    1  UNL1        0.0289
      8 O          64.6788   84.4056   14.1539 O.2     1  UNL1       -0.1642
      9 O          62.0655   85.0977   12.8535 O.2     1  UNL1       -0.1642
     10 C          62.1529   78.9138   12.8464 C.3     1  UNL1        0.0521
     11 C          62.4577   80.3732   13.0107 C.ar    1  UNL1        0.0595
     12 C          62.9486   81.1733   11.8407 C.ar    1  UNL1        0.0161
     13 C          63.2534   82.6327   12.0050 C.ar    1  UNL1        0.0215
     14 C          63.0673   83.2922   13.3394 C.ar    1  UNL1        0.1293
     15 C          62.5764   82.4922   14.5094 C.ar    1  UNL1        0.1171
     16 N          62.2716   81.0326   14.3451 N.ar    1  UNL1       -0.2468
     17 C          64.5914   90.5896   14.1610 C.3     1  UNL1        0.1177
     18 N          65.0335   91.4011   12.9795 N.am    1  UNL1       -0.2847
     19 C          65.5093   92.8104   13.1733 C.2     1  UNL1        0.3047
     20 O          65.5429   93.4081   14.5486 O.2     1  UNL1       -0.2526
     21 N          65.9515   93.6219   11.9918 N.am    1  UNL1       -0.2560
     22 C          66.4493   95.0363   12.0302 C.3     1  UNL1        0.1218
     23 C          66.7789   95.4500   10.6266 C.ar    1  UNL1       -0.0016
     24 C          67.3089   96.7322   10.0564 C.ar    1  UNL1        0.0178
     25 C          67.5448   96.8556    8.5802 C.ar    1  UNL1        0.0986
     26 N          67.2507   95.6968    7.6743 N.ar    1  UNL1       -0.2426
     27 C          66.7207   94.4146    8.2445 C.ar    1  UNL1        0.0960
     28 C          66.4849   94.2913    9.7206 C.ar    1  UNL1        0.0146
     29 C          65.9735   93.1614   10.5644 C.3     1  UNL1        0.1233
     30 H          65.0115   91.0088   12.0768 H       1  UNL1        0.1513
@<TRIPOS>BOND
     1    10    11    1
     2    11    12   ar
     3    12    13   ar
     4    13    14   ar
     5    14     7    1
     6     7     8    2
     7     7     9    2
     8     7     1    1
     9     1     2   ar
    10     2     3   ar
    11     3     4   ar
    12     4    17    1
    13    17    18    1
    14    18    19   am
    15    19    20    2
    16    19    21   am
    17    21    22    1
    18    22    23    1
    19    23    24   ar
    20    24    25   ar
    21    25    26   ar
    22    26    27   ar
    23    27    28   ar
    24    28    29    1
    25     4     5   ar
    26     5     6   ar
    27    14    15   ar
    28    15    16   ar
    29    16    11   ar
    30     6     1   ar
    31    29    21    1
    32    28    23   ar
    33    18    30    1
@<TRIPOS>MOLECULE
*****
 30 33 0 0 0
SMALL
GASTEIGER

@<TRIPOS>ATOM
      1 C          61.2068   87.5813    9.8267 C.ar    1  UNL1        0.1103
      2 C          60.5207   86.9156    8.6707 C.ar    1  UNL1        0.0185
      3 C          59.8603   87.7465    7.6109 C.ar    1  UNL1       -0.0013
      4 C          59.8858   89.2432    7.7070 C.ar    1  UNL1       -0.0024
      5 C          60.5718   89.9090    8.8629 C.ar    1  UNL1       -0.0013
      6 C          61.2323   89.0780    9.9228 C.ar    1  UNL1        0.0185
      7 S          61.8672   86.7504   10.8865 S.O2    1  UNL1        0.0289
      8 O          61.1468   85.5351   10.3826 O.2     1  UNL1       -0.1642
      9 O          62.5877   87.9657   11.3904 O.2     1  UNL1       -0.1642
     10 C          64.5092   83.4266   15.1259 C.3     1  UNL1        0.0521
     11 C          63.8487   84.2576   14.0661 C.ar    1  UNL1        0.0595
     12 C          63.9727   85.7521   14.0990 C.ar    1  UNL1        0.0161
     13 C          63.3123   86.5830   13.0392 C.ar    1  UNL1        0.0215
     14 C          62.5277   85.9194   11.9464 C.ar    1  UNL1        0.1293
     15 C          62.4037   84.4249   11.9134 C.ar    1  UNL1        0.1171
     16 N          63.0642   83.5940   12.9733 N.ar    1  UNL1       -0.2468
     17 C          59.2253   90.0742    6.6471 C.3     1  UNL1        0.1177
     18 N          60.0509   90.7030    5.5641 N.am    1  UNL1       -0.2847
     19 C          59.4187   91.6634    4.6009 C.2     1  UNL1        0.3047
     20 O          57.9607   91.9950    4.7207 O.2     1  UNL1       -0.2526
     21 N          60.2444   92.2923    3.5180 N.am    1  UNL1       -0.2560
     22 C          59.7534   93.2654    2.4874 C.3     1  UNL1        0.1218
     23 C          60.9116   93.6330    1.6080 C.ar    1  UNL1       -0.0016
     24 C          61.0232   94.5505    0.4266 C.ar    1  UNL1        0.0178
     25 C          62.3416   94.7221   -0.2677 C.ar    1  UNL1        0.0986
     26 N          63.5485   93.9762    0.2193 N.ar    1  UNL1       -0.2426
     27 C          63.4368   93.0587    1.4006 C.ar    1  UNL1        0.0960
     28 C          62.1184   92.8870    2.0949 C.ar    1  UNL1        0.0146
     29 C          61.7060   92.0585    3.2754 C.3     1  UNL1        0.1233
     30 H          61.0079   90.4854    5.4855 H       1  UNL1        0.1513
@<TRIPOS>BOND
     1    10    11    1
     2    11    12   ar
     3    12    13   ar
     4    13    14   ar
     5    14     7    1
     6     7     8    2
     7     7     9    2
     8     7     1    1
     9     1     2   ar
    10     2     3   ar
    11     3     4   ar
    12     4    17    1
    13    17    18    1
    14    18    19   am
    15    19    20    2
    16    19    21   am
    17    21    22    1
    18    22    23    1
    19    23    24   ar
    20    24    25   ar
    21    25    26   ar
    22    26    27   ar
    23    27    28   ar
    24    28    29    1
    25     4     5   ar
    26     5     6   ar
    27    14    15   ar
    28    15    16   ar
    29    16    11   ar
    30     6     1   ar
    31    29    21    1
    32    28    23   ar
    33    18    30    1
@<TRIPOS>MOLECULE
*****
 30 33 0 0 0
SMALL
GASTEIGER

@<TRIPOS>ATOM
      1 C          61.1830   92.3905    2.9460 C.ar    1  UNL1        0.1103
      2 C          59.7681   92.7453    3.2959 C.ar    1  UNL1        0.0185
      3 C          59.0740   92.0379    4.4218 C.ar    1  UNL1       -0.0013
      4 C          59.7947   90.9756    5.1978 C.ar    1  UNL1       -0.0024
      5 C          61.2094   90.6208    4.8480 C.ar    1  UNL1       -0.0013
      6 C          61.9036   91.3282    3.7220 C.ar    1  UNL1        0.0185
      7 S          61.8771   93.0979    1.8201 S.O2    1  UNL1        0.0289
      8 O          60.5479   93.4327    1.2110 O.2     1  UNL1       -0.1642
      9 O          63.2063   92.7632    2.4293 O.2     1  UNL1       -0.1642
     10 C          64.6536   95.9278   -2.6835 C.3     1  UNL1        0.0521
     11 C          63.9595   95.2203   -1.5576 C.ar    1  UNL1        0.0595
     12 C          64.7352   94.7993   -0.3447 C.ar    1  UNL1        0.0161
     13 C          64.0411   94.0919    0.7812 C.ar    1  UNL1        0.0215
     14 C          62.5712   93.8054    0.6942 C.ar    1  UNL1        0.1293
     15 C          61.7955   94.2264   -0.5187 C.ar    1  UNL1        0.1171
     16 N          62.4897   94.9339   -1.6446 N.ar    1  UNL1       -0.2468
     17 C          59.1005   90.2681    6.3238 C.3     1  UNL1        0.1177
     18 N          59.8888   89.7827    7.5040 N.am    1  UNL1       -0.2847
     19 C          59.8805   88.3265    7.8638 C.2     1  UNL1        0.3047
     20 O          59.0839   87.3558    7.0434 O.2     1  UNL1       -0.2526
     21 N          60.6689   87.8410    9.0439 N.am    1  UNL1       -0.2560
     22 C          60.7563   86.4221    9.5225 C.3     1  UNL1        0.1218
     23 C          61.6496   86.3934   10.7271 C.ar    1  UNL1       -0.0016
     24 C          62.1000   85.2724   11.6162 C.ar    1  UNL1        0.0178
     25 C          63.0151   85.5526   12.7712 C.ar    1  UNL1        0.0986
     26 N          63.4798   86.9537   13.0371 N.ar    1  UNL1       -0.2426
     27 C          63.0295   88.0747   12.1481 C.ar    1  UNL1        0.0960
     28 C          62.1144   87.7946   10.9931 C.ar    1  UNL1        0.0146
     29 C          61.5082   88.6892    9.9528 C.3     1  UNL1        0.1233
     30 H          60.4117   90.4198    8.0424 H       1  UNL1        0.1513
@<TRIPOS>BOND
     1    10    11    1
     2    11    12   ar
     3    12    13   ar
     4    13    14   ar
     5    14     7    1
     6     7     8    2
     7     7     9    2
     8     7     1    1
     9     1     2   ar
    10     2     3   ar
    11     3     4   ar
    12     4    17    1
    13    17    18    1
    14    18    19   am
    15    19    20    2
    16    19    21   am
    17    21    22    1
    18    22    23    1
    19    23    24   ar
    20    24    25   ar
    21    25    26   ar
    22    26    27   ar
    23    27    28   ar
    24    28    29    1
    25     4     5   ar
    26     5     6   ar
    27    14    15   ar
    28    15    16   ar
    29    16    11   ar
    30     6     1   ar
    31    29    21    1
    32    28    23   ar
    33    18    30    1
@<TRIPOS>MOLECULE
*****
 30 33 0 0 0
SMALL
GASTEIGER

@<TRIPOS>ATOM
      1 C          63.6080   85.3196   13.0076 C.ar    1  UNL1        0.1103
      2 C          63.0812   86.4247   12.1408 C.ar    1  UNL1        0.0185
      3 C          63.2978   87.8555   12.5354 C.ar    1  UNL1       -0.0013
      4 C          64.0413   88.1814   13.7968 C.ar    1  UNL1       -0.0024
      5 C          64.5681   87.0764   14.6636 C.ar    1  UNL1       -0.0013
      6 C          64.3515   85.6454   14.2690 C.ar    1  UNL1        0.0185
      7 S          63.3914   83.8888   12.6131 S.O2    1  UNL1        0.0289
      8 O          64.0559   83.4387   13.8802 O.2     1  UNL1       -0.1642
      9 O          62.7268   84.3388   11.3459 O.2     1  UNL1       -0.1642
     10 C          62.5248   78.1654   11.0347 C.3     1  UNL1        0.0521
     11 C          62.7414   79.5962   11.4293 C.ar    1  UNL1        0.0595
     12 C          63.2094   80.5926   10.4104 C.ar    1  UNL1        0.0161
     13 C          63.4260   82.0234   10.8049 C.ar    1  UNL1        0.0215
     14 C          63.1747   82.4579   12.2185 C.ar    1  UNL1        0.1293
     15 C          62.7067   81.4616   13.2374 C.ar    1  UNL1        0.1171
     16 N          62.4901   80.0306   12.8428 N.ar    1  UNL1       -0.2468
     17 C          64.2579   89.6123   14.1913 C.3     1  UNL1        0.1177
     18 N          64.7046   90.6132   13.1673 N.am    1  UNL1       -0.2847
     19 C          65.1500   91.9792   13.5981 C.2     1  UNL1        0.3047
     20 O          65.1488   92.3442   15.0530 O.2     1  UNL1       -0.2526
     21 N          65.5966   92.9801   12.5741 N.am    1  UNL1       -0.2560
     22 C          66.0666   94.3770   12.8530 C.3     1  UNL1        0.1218
     23 C          66.4121   95.0202   11.5426 C.ar    1  UNL1       -0.0016
     24 C          66.9272   96.3867   11.2002 C.ar    1  UNL1        0.0178
     25 C          67.1857   96.7538    9.7690 C.ar    1  UNL1        0.0986
     26 N          66.9292   95.7544    8.6803 N.ar    1  UNL1       -0.2426
     27 C          66.4142   94.3879    9.0227 C.ar    1  UNL1        0.0960
     28 C          66.1557   94.0208   10.4539 C.ar    1  UNL1        0.0146
     29 C          65.6517   92.7600   11.0914 C.3     1  UNL1        0.1233
     30 H          64.7054   90.3736   12.2124 H       1  UNL1        0.1513
@<TRIPOS>BOND
     1    10    11    1
     2    11    12   ar
     3    12    13   ar
     4    13    14   ar
     5    14     7    1
     6     7     8    2
     7     7     9    2
     8     7     1    1
     9     1     2   ar
    10     2     3   ar
    11     3     4   ar
    12     4    17    1
    13    17    18    1
    14    18    19   am
    15    19    20    2
    16    19    21   am
    17    21    22    1
    18    22    23    1
    19    23    24   ar
    20    24    25   ar
    21    25    26   ar
    22    26    27   ar
    23    27    28   ar
    24    28    29    1
    25     4     5   ar
    26     5     6   ar
    27    14    15   ar
    28    15    16   ar
    29    16    11   ar
    30     6     1   ar
    31    29    21    1
    32    28    23   ar
    33    18    30    1
@<TRIPOS>MOLECULE
*****
 30 33 0 0 0
SMALL
GASTEIGER

@<TRIPOS>ATOM
      1 C          63.8319   86.9390   13.6894 C.ar    1  UNL1        0.1103
      2 C          63.4809   87.9989   12.6877 C.ar    1  UNL1        0.0185
      3 C          63.7534   89.4414   12.9955 C.ar    1  UNL1       -0.0013
      4 C          64.3769   89.8242   14.3049 C.ar    1  UNL1       -0.0024
      5 C          64.7279   88.7643   15.3067 C.ar    1  UNL1       -0.0013
      6 C          64.4555   87.3217   14.9989 C.ar    1  UNL1        0.0185
      7 S          63.5595   85.4964   13.3817 S.O2    1  UNL1        0.0289
      8 O          62.6124   85.9074   12.2936 O.2     1  UNL1       -0.1642
      9 O          64.5066   85.0854   14.4698 O.2     1  UNL1       -0.1642
     10 C          62.4696   79.7261   12.1506 C.3     1  UNL1        0.0521
     11 C          62.7421   81.1687   12.4583 C.ar    1  UNL1        0.0595
     12 C          63.3282   82.0624   11.4058 C.ar    1  UNL1        0.0161
     13 C          63.6007   83.5049   11.7136 C.ar    1  UNL1        0.0215
     14 C          63.2870   84.0539   13.0739 C.ar    1  UNL1        0.1293
     15 C          62.7009   83.1602   14.1264 C.ar    1  UNL1        0.1171
     16 N          62.4284   81.7175   13.8186 N.ar    1  UNL1       -0.2468
     17 C          64.6493   91.2668   14.6127 C.3     1  UNL1        0.1177
     18 N          64.7787   92.2603   13.4964 N.am    1  UNL1       -0.2847
     19 C          66.0769   92.3925   12.7567 C.2     1  UNL1        0.3047
     20 O          67.2457   91.5312   13.1333 O.2     1  UNL1       -0.2526
     21 N          66.2063   93.3860   11.6403 N.am    1  UNL1       -0.2560
     22 C          67.4346   93.6294   10.8146 C.3     1  UNL1        0.1218
     23 C          67.1175   94.7044    9.8176 C.ar    1  UNL1       -0.0016
     24 C          67.9417   95.3543    8.7461 C.ar    1  UNL1        0.0178
     25 C          67.3416   96.4252    7.8842 C.ar    1  UNL1        0.0986
     26 N          65.9172   96.8462    8.0938 N.ar    1  UNL1       -0.2426
     27 C          65.0930   96.1963    9.1653 C.ar    1  UNL1        0.0960
     28 C          65.6931   95.1254   10.0273 C.ar    1  UNL1        0.0146
     29 C          65.1300   94.3106   11.1537 C.3     1  UNL1        0.1233
     30 H          64.0115   92.8256   13.2492 H       1  UNL1        0.1513
@<TRIPOS>BOND
     1    10    11    1
     2    11    12   ar
     3    12    13   ar
     4    13    14   ar
     5    14     7    1
     6     7     8    2
     7     7     9    2
     8     7     1    1
     9     1     2   ar
    10     2     3   ar
    11     3     4   ar
    12     4    17    1
    13    17    18    1
    14    18    19   am
    15    19    20    2
    16    19    21   am
    17    21    22    1
    18    22    23    1
    19    23    24   ar
    20    24    25   ar
    21    25    26   ar
    22    26    27   ar
    23    27    28   ar
    24    28    29    1
    25     4     5   ar
    26     5     6   ar
    27    14    15   ar
    28    15    16   ar
    29    16    11   ar
    30     6     1   ar
    31    29    21    1
    32    28    23   ar
    33    18    30    1
@<TRIPOS>MOLECULE
*****
 30 33 0 0 0
SMALL
GASTEIGER

@<TRIPOS>ATOM
      1 C          60.5702   92.3068    3.3564 C.ar    1  UNL1        0.1103
      2 C          61.4978   91.3877    4.0946 C.ar    1  UNL1        0.0185
      3 C          60.9838   90.5619    5.2364 C.ar    1  UNL1       -0.0013
      4 C          59.5422   90.6551    5.6401 C.ar    1  UNL1       -0.0024
      5 C          58.6145   91.5741    4.9020 C.ar    1  UNL1       -0.0013
      6 C          59.1285   92.4000    3.7601 C.ar    1  UNL1        0.0185
      7 S          61.0842   93.1326    2.2146 S.O2    1  UNL1        0.0289
      8 O          62.0872   92.0645    1.8936 O.2     1  UNL1       -0.1642
      9 O          60.0812   94.2007    2.5356 O.2     1  UNL1       -0.1642
     10 C          63.1403   96.4359   -2.3527 C.3     1  UNL1        0.0521
     11 C          62.6263   95.6101   -1.2109 C.ar    1  UNL1        0.0595
     12 C          62.0441   94.2521   -1.4699 C.ar    1  UNL1        0.0161
     13 C          61.5301   93.4263   -0.3281 C.ar    1  UNL1        0.0215
     14 C          61.5982   93.9584    1.0728 C.ar    1  UNL1        0.1293
     15 C          62.1804   95.3164    1.3317 C.ar    1  UNL1        0.1171
     16 N          62.6944   96.1422    0.1898 N.ar    1  UNL1       -0.2468
     17 C          59.0282   89.8292    6.7819 C.3     1  UNL1        0.1177
     18 N          59.8632   88.7130    7.3357 N.am    1  UNL1       -0.2847
     19 C          60.1535   88.6517    8.8060 C.2     1  UNL1        0.3047
     20 O          59.6087   89.7067    9.7226 O.2     1  UNL1       -0.2526
     21 N          60.9886   87.5355    9.3598 N.am    1  UNL1       -0.2560
     22 C          61.3605   87.3435   10.8002 C.3     1  UNL1        0.1218
     23 C          62.2002   86.1046   10.9010 C.ar    1  UNL1       -0.0016
     24 C          62.8498   85.4248   12.0697 C.ar    1  UNL1        0.0178
     25 C          63.6465   84.1713   11.8602 C.ar    1  UNL1        0.0986
     26 N          63.7934   83.5975   10.4821 N.ar    1  UNL1       -0.2426
     27 C          63.1437   84.2773    9.3134 C.ar    1  UNL1        0.0960
     28 C          62.3471   85.5309    9.5229 C.ar    1  UNL1        0.0146
     29 C          61.5983   86.4152    8.5704 C.3     1  UNL1        0.1233
     30 H          60.2208   88.0205    6.7341 H       1  UNL1        0.1513
@<TRIPOS>BOND
     1    10    11    1
     2    11    12   ar
     3    12    13   ar
     4    13    14   ar
     5    14     7    1
     6     7     8    2
     7     7     9    2
     8     7     1    1
     9     1     2   ar
    10     2     3   ar
    11     3     4   ar
    12     4    17    1
    13    17    18    1
    14    18    19   am
    15    19    20    2
    16    19    21   am
    17    21    22    1
    18    22    23    1
    19    23    24   ar
    20    24    25   ar
    21    25    26   ar
    22    26    27   ar
    23    27    28   ar
    24    28    29    1
    25     4     5   ar
    26     5     6   ar
    27    14    15   ar
    28    15    16   ar
    29    16    11   ar
    30     6     1   ar
    31    29    21    1
    32    28    23   ar
    33    18    30    1
@<TRIPOS>MOLECULE
*****
 30 33 0 0 0
SMALL
GASTEIGER

@<TRIPOS>ATOM
      1 C          60.2977   92.2366    3.4417 C.ar    1  UNL1        0.1103
      2 C          61.4020   91.4467    4.0794 C.ar    1  UNL1        0.0185
      3 C          61.1097   90.5640    5.2564 C.ar    1  UNL1       -0.0013
      4 C          59.7131   90.4711    5.7957 C.ar    1  UNL1       -0.0024
      5 C          58.6088   91.2609    5.1580 C.ar    1  UNL1       -0.0013
      6 C          58.9011   92.1437    3.9810 C.ar    1  UNL1        0.0185
      7 S          60.5901   93.1194    2.2648 S.O2    1  UNL1        0.0289
      8 O          62.0340   92.7174    2.3220 O.2     1  UNL1       -0.1642
      9 O          59.1461   93.5213    2.2076 O.2     1  UNL1       -0.1642
     10 C          61.7595   96.6504   -2.4431 C.3     1  UNL1        0.0521
     11 C          61.4671   95.7676   -1.2661 C.ar    1  UNL1        0.0595
     12 C          62.5670   95.3945   -0.3169 C.ar    1  UNL1        0.0161
     13 C          62.2747   94.5118    0.8600 C.ar    1  UNL1        0.0215
     14 C          60.8824   94.0021    1.0878 C.ar    1  UNL1        0.1293
     15 C          59.7825   94.3752    0.1386 C.ar    1  UNL1        0.1171
     16 N          60.0749   95.2580   -1.0384 N.ar    1  UNL1       -0.2468
     17 C          59.4208   89.5883    6.9727 C.3     1  UNL1        0.1177
     18 N          60.2310   89.7195    8.2282 N.am    1  UNL1       -0.2847
     19 C          60.7798   88.4948    8.8981 C.2     1  UNL1        0.3047
     20 O          60.5182   87.1388    8.3126 O.2     1  UNL1       -0.2526
     21 N          61.5900   88.6261   10.1536 N.am    1  UNL1       -0.2560
     22 C          62.2005   87.4978   10.9310 C.3     1  UNL1        0.1218
     23 C          62.9198   88.0830   12.1100 C.ar    1  UNL1       -0.0016
     24 C          63.7044   87.4517   13.2216 C.ar    1  UNL1        0.0178
     25 C          64.3232   88.3104   14.2845 C.ar    1  UNL1        0.0986
     26 N          64.1574   89.8004   14.2357 N.ar    1  UNL1       -0.2426
     27 C          63.3728   90.4317   13.1241 C.ar    1  UNL1        0.0960
     28 C          62.7540   89.5730   12.0613 C.ar    1  UNL1        0.0146
     29 C          61.9322   89.9086   10.8521 C.3     1  UNL1        0.1233
     30 H          60.4027   90.6095    8.6125 H       1  UNL1        0.1513
@<TRIPOS>BOND
     1    10    11    1
     2    11    12   ar
     3    12    13   ar
     4    13    14   ar
     5    14     7    1
     6     7     8    2
     7     7     9    2
     8     7     1    1
     9     1     2   ar
    10     2     3   ar
    11     3     4   ar
    12     4    17    1
    13    17    18    1
    14    18    19   am
    15    19    20    2
    16    19    21   am
    17    21    22    1
    18    22    23    1
    19    23    24   ar
    20    24    25   ar
    21    25    26   ar
    22    26    27   ar
    23    27    28   ar
    24    28    29    1
    25     4     5   ar
    26     5     6   ar
    27    14    15   ar
    28    15    16   ar
    29    16    11   ar
    30     6     1   ar
    31    29    21    1
    32    28    23   ar
    33    18    30    1
