@<TRIPOS>MOLECULE
*****
 25 28 0 0 0
SMALL
GASTEIGER

@<TRIPOS>ATOM
      1 C          64.1146   91.1108   12.6984 C.ar    1  UNL1        0.1386
      2 C          63.8119   91.5760   11.3048 C.ar    1  UNL1        0.0369
      3 C          63.0335   90.6954   10.3727 C.ar    1  UNL1        0.0043
      4 C          62.5579   89.3497   10.8343 C.ar    1  UNL1        0.0152
      5 C          62.8606   88.8847   12.2278 C.ar    1  UNL1        0.0043
      6 C          63.6390   89.7652   13.1599 C.ar    1  UNL1        0.0369
      7 C          61.7795   88.4692    9.9022 C.2     1  UNL1        0.0763
      8 N          60.6105   89.0262    9.1453 N.2     1  UNL1       -0.1836
      9 N          59.8321   88.1456    8.2132 N.am    1  UNL1       -0.2062
     10 C          60.2227   86.7080    8.0381 C.2     1  UNL1        0.2410
     11 O          59.4443   85.8275    7.1061 O.2     1  UNL1       -0.2734
     12 C          61.3918   86.1509    8.7952 C.3     1  UNL1        0.0841
     13 C          62.5608   85.5939    9.5521 C.3     1  UNL1        0.0160
     14 C          62.1702   87.0315    9.7272 C.3     1  UNL1        0.0509
     15 H          59.0648   88.5112    7.7164 H       1  UNL1        0.1772
     16 O          64.8930   91.9914   13.6305 O.3     1  UNL1       -0.4754
     17 C          66.2657   91.5833   14.0767 C.3     1  UNL1        0.2068
     18 C          67.4750   92.1292   13.3770 C.3     1  UNL1        0.0646
     19 C          67.6070   91.9907   11.8893 C.3     1  UNL1        0.0759
     20 C          68.6560   92.4131    8.8281 C.3     1  UNL1        0.0173
     21 C          67.7587   93.3436    9.5888 C.3     1  UNL1        0.0576
     22 C          67.1858   94.6317    9.0761 C.3     1  UNL1        0.0174
     23 C          66.3496   95.2336   10.1663 C.3     1  UNL1        0.0187
     24 C          66.4056   94.3175   11.3528 C.3     1  UNL1        0.0721
     25 N          67.2764   93.1495   10.9959 N.3     1  UNL1       -0.2738
@<TRIPOS>BOND
     1    21    20    1
     2    21    22    1
     3    22    23    1
     4    23    24    1
     5    24    25    1
     6    25    19    1
     7    19    18    1
     8    18    17    1
     9    17    16    1
    10    16     1    1
    11     1     2   ar
    12     2     3   ar
    13     3     4   ar
    14     4     7    1
    15     7     8    2
    16     8     9    1
    17     9    10   am
    18    10    11    2
    19    10    12    1
    20    12    13    1
    21    13    14    1
    22     4     5   ar
    23     5     6   ar
    24    25    21    1
    25     6     1   ar
    26    14     7    1
    27    14    12    1
    28     9    15    1
@<TRIPOS>MOLECULE
*****
 25 28 0 0 0
SMALL
GASTEIGER

@<TRIPOS>ATOM
      1 C          62.8090   88.9766   12.2582 C.ar    1  UNL1        0.1386
      2 C          63.0809   90.3599   11.7455 C.ar    1  UNL1        0.0369
      3 C          64.0716   91.2393   12.4491 C.ar    1  UNL1        0.0043
      4 C          64.7904   90.7355   13.6656 C.ar    1  UNL1        0.0152
      5 C          64.5184   89.3523   14.1783 C.ar    1  UNL1        0.0043
      6 C          63.5277   88.4729   13.4746 C.ar    1  UNL1        0.0369
      7 C          65.7810   91.6149   14.3693 C.2     1  UNL1        0.0763
      8 N          65.3765   92.3595   15.6069 N.2     1  UNL1       -0.1836
      9 N          66.3672   93.2389   16.3106 N.am    1  UNL1       -0.2062
     10 C          67.7624   93.3737   15.7766 C.2     1  UNL1        0.2410
     11 O          68.7531   94.2531   16.4803 O.2     1  UNL1       -0.2734
     12 C          68.1670   92.6290   14.5389 C.3     1  UNL1        0.0841
     13 C          68.5715   91.8844   13.3012 C.3     1  UNL1        0.0160
     14 C          67.1763   91.7496   13.8352 C.3     1  UNL1        0.0509
     15 H          66.1017   93.7277   17.1229 H       1  UNL1        0.1772
     16 O          61.8183   88.0972   11.5546 O.3     1  UNL1       -0.4754
     17 C          62.2772   86.8342   10.8881 C.3     1  UNL1        0.2068
     18 C          61.9539   85.5033   11.4997 C.3     1  UNL1        0.0646
     19 C          62.9190   84.8609   12.4514 C.3     1  UNL1        0.0759
     20 C          63.8899   82.4250   10.5088 C.3     1  UNL1        0.0173
     21 C          63.2576   82.2760   11.8607 C.3     1  UNL1        0.0576
     22 C          62.9604   80.9811   12.5572 C.3     1  UNL1        0.0174
     23 C          62.3305   81.3004   13.8805 C.3     1  UNL1        0.0187
     24 C          62.2383   82.7927   14.0020 C.3     1  UNL1        0.0721
     25 N          62.8113   83.3956   12.7537 N.3     1  UNL1       -0.2738
@<TRIPOS>BOND
     1    21    20    1
     2    21    22    1
     3    22    23    1
     4    23    24    1
     5    24    25    1
     6    25    19    1
     7    19    18    1
     8    18    17    1
     9    17    16    1
    10    16     1    1
    11     1     2   ar
    12     2     3   ar
    13     3     4   ar
    14     4     7    1
    15     7     8    2
    16     8     9    1
    17     9    10   am
    18    10    11    2
    19    10    12    1
    20    12    13    1
    21    13    14    1
    22     4     5   ar
    23     5     6   ar
    24    25    21    1
    25     6     1   ar
    26    14     7    1
    27    14    12    1
    28     9    15    1
@<TRIPOS>MOLECULE
*****
 25 28 0 0 0
SMALL
GASTEIGER

@<TRIPOS>ATOM
      1 C          63.7624   89.3927   13.3896 C.ar    1  UNL1        0.1386
      2 C          64.3529   88.7272   14.5973 C.ar    1  UNL1        0.0369
      3 C          64.3111   87.2333   14.7261 C.ar    1  UNL1        0.0043
      4 C          63.6787   86.4049   13.6472 C.ar    1  UNL1        0.0152
      5 C          63.0882   87.0705   12.4396 C.ar    1  UNL1        0.0043
      6 C          63.1300   88.5643   12.3108 C.ar    1  UNL1        0.0369
      7 C          63.6369   84.9111   13.7759 C.2     1  UNL1        0.0763
      8 N          63.2530   84.2813   15.0821 N.2     1  UNL1       -0.1836
      9 N          63.2111   82.7875   15.2108 N.am    1  UNL1       -0.2062
     10 C          63.5532   81.9233   14.0335 C.2     1  UNL1        0.2410
     11 O          63.5114   80.4294   14.1623 O.2     1  UNL1       -0.2734
     12 C          63.9371   82.5530   12.7273 C.3     1  UNL1        0.0841
     13 C          64.3210   83.1828   11.4211 C.3     1  UNL1        0.0160
     14 C          63.9790   84.0469   12.5985 C.3     1  UNL1        0.0509
     15 H          62.9592   82.3742   16.0681 H       1  UNL1        0.1772
     16 O          63.8042   90.8866   13.2608 O.3     1  UNL1       -0.4754
     17 C          65.1230   91.5940   13.1592 C.3     1  UNL1        0.2068
     18 C          65.4731   92.3525   11.9134 C.3     1  UNL1        0.0646
     19 C          66.8044   93.0341   11.7995 C.3     1  UNL1        0.0759
     20 C          68.4248   92.5282    9.0124 C.3     1  UNL1        0.0173
     21 C          67.7828   93.8153    9.4378 C.3     1  UNL1        0.0576
     22 C          67.7729   95.0960    8.6569 C.3     1  UNL1        0.0174
     23 C          67.0220   96.1201    9.4553 C.3     1  UNL1        0.0187
     24 C          66.5678   95.4723   10.7297 C.3     1  UNL1        0.0721
     25 N          67.0380   94.0479   10.7189 N.3     1  UNL1       -0.2738
@<TRIPOS>BOND
     1    21    20    1
     2    21    22    1
     3    22    23    1
     4    23    24    1
     5    24    25    1
     6    25    19    1
     7    19    18    1
     8    18    17    1
     9    17    16    1
    10    16     1    1
    11     1     2   ar
    12     2     3   ar
    13     3     4   ar
    14     4     7    1
    15     7     8    2
    16     8     9    1
    17     9    10   am
    18    10    11    2
    19    10    12    1
    20    12    13    1
    21    13    14    1
    22     4     5   ar
    23     5     6   ar
    24    25    21    1
    25     6     1   ar
    26    14     7    1
    27    14    12    1
    28     9    15    1
@<TRIPOS>MOLECULE
*****
 25 28 0 0 0
SMALL
GASTEIGER

@<TRIPOS>ATOM
      1 C          63.3044   88.0205   16.2251 C.ar    1  UNL1        0.1386
      2 C          64.0732   87.7962   14.9568 C.ar    1  UNL1        0.0369
      3 C          64.6493   88.9641   14.2124 C.ar    1  UNL1        0.0043
      4 C          64.4566   90.3564   14.7364 C.ar    1  UNL1        0.0152
      5 C          63.6878   90.5807   16.0047 C.ar    1  UNL1        0.0043
      6 C          63.1117   89.4127   16.7491 C.ar    1  UNL1        0.0369
      7 C          65.0326   91.5243   13.9920 C.2     1  UNL1        0.0763
      8 N          64.5377   91.8540   12.6150 N.2     1  UNL1       -0.1836
      9 N          65.1138   93.0219   11.8706 N.am    1  UNL1       -0.2062
     10 C          66.1848   93.8601   12.5033 C.2     1  UNL1        0.2410
     11 O          66.7608   95.0281   11.7589 O.2     1  UNL1       -0.2734
     12 C          66.6797   93.5305   13.8804 C.3     1  UNL1        0.0841
     13 C          67.1746   93.2008   15.2574 C.3     1  UNL1        0.0160
     14 C          66.1037   92.3625   14.6248 C.3     1  UNL1        0.0509
     15 H          64.7889   93.2383   10.9668 H       1  UNL1        0.1772
     16 O          62.7284   86.8526   16.9695 O.3     1  UNL1       -0.4754
     17 C          63.2158   85.4640   16.6795 C.3     1  UNL1        0.2068
     18 C          62.4592   84.5874   15.7261 C.3     1  UNL1        0.0646
     19 C          63.0641   84.2204   14.4035 C.3     1  UNL1        0.0759
     20 C          64.3052   83.0819   11.6082 C.3     1  UNL1        0.0173
     21 C          63.3685   82.3474   12.5208 C.3     1  UNL1        0.0576
     22 C          62.8377   80.9605   12.3088 C.3     1  UNL1        0.0174
     23 C          61.9392   80.6266   13.4626 C.3     1  UNL1        0.0187
     24 C          61.9147   81.8072   14.3877 C.3     1  UNL1        0.0721
     25 N          62.7980   82.8706   13.8057 N.3     1  UNL1       -0.2738
@<TRIPOS>BOND
     1    21    20    1
     2    21    22    1
     3    22    23    1
     4    23    24    1
     5    24    25    1
     6    25    19    1
     7    19    18    1
     8    18    17    1
     9    17    16    1
    10    16     1    1
    11     1     2   ar
    12     2     3   ar
    13     3     4   ar
    14     4     7    1
    15     7     8    2
    16     8     9    1
    17     9    10   am
    18    10    11    2
    19    10    12    1
    20    12    13    1
    21    13    14    1
    22     4     5   ar
    23     5     6   ar
    24    25    21    1
    25     6     1   ar
    26    14     7    1
    27    14    12    1
    28     9    15    1
@<TRIPOS>MOLECULE
*****
 25 28 0 0 0
SMALL
GASTEIGER

@<TRIPOS>ATOM
      1 C          63.4813   83.9519   11.5532 C.ar    1  UNL1        0.1386
      2 C          63.6755   84.0030   10.0666 C.ar    1  UNL1        0.0369
      3 C          62.8461   84.9347    9.2335 C.ar    1  UNL1        0.0043
      4 C          61.8224   85.8152    9.8869 C.ar    1  UNL1        0.0152
      5 C          61.6282   85.7640   11.3734 C.ar    1  UNL1        0.0043
      6 C          62.4576   84.8323   12.2065 C.ar    1  UNL1        0.0369
      7 C          60.9930   86.7468    9.0538 C.2     1  UNL1        0.0763
      8 N          60.1524   86.2059    7.9355 N.2     1  UNL1       -0.1836
      9 N          59.3230   87.1376    7.1024 N.am    1  UNL1       -0.2062
     10 C          59.3341   88.6101    7.3876 C.2     1  UNL1        0.2410
     11 O          58.5047   89.5418    6.5545 O.2     1  UNL1       -0.2734
     12 C          60.1747   89.1511    8.5061 C.3     1  UNL1        0.0841
     13 C          61.0153   89.6920    9.6245 C.3     1  UNL1        0.0160
     14 C          61.0041   88.2195    9.3392 C.3     1  UNL1        0.0509
     15 H          58.7713   86.7826    6.3683 H       1  UNL1        0.1772
     16 O          64.3107   83.0202   12.3863 O.3     1  UNL1       -0.4754
     17 C          64.4235   83.2365   13.8663 C.3     1  UNL1        0.2068
     18 C          64.7807   84.5916   14.4011 C.3     1  UNL1        0.0646
     19 C          64.0292   85.1591   15.5686 C.3     1  UNL1        0.0759
     20 C          62.5668   86.7104   18.0393 C.3     1  UNL1        0.0173
     21 C          63.1751   87.3558   16.8297 C.3     1  UNL1        0.0576
     22 C          63.2181   88.8276   16.5433 C.3     1  UNL1        0.0174
     23 C          63.9168   89.0242   15.2306 C.3     1  UNL1        0.0187
     24 C          64.3057   87.6738   14.7057 C.3     1  UNL1        0.0721
     25 N          63.8473   86.6427   15.6940 N.3     1  UNL1       -0.2738
@<TRIPOS>BOND
     1    21    20    1
     2    21    22    1
     3    22    23    1
     4    23    24    1
     5    24    25    1
     6    25    19    1
     7    19    18    1
     8    18    17    1
     9    17    16    1
    10    16     1    1
    11     1     2   ar
    12     2     3   ar
    13     3     4   ar
    14     4     7    1
    15     7     8    2
    16     8     9    1
    17     9    10   am
    18    10    11    2
    19    10    12    1
    20    12    13    1
    21    13    14    1
    22     4     5   ar
    23     5     6   ar
    24    25    21    1
    25     6     1   ar
    26    14     7    1
    27    14    12    1
    28     9    15    1
@<TRIPOS>MOLECULE
*****
 25 28 0 0 0
SMALL
GASTEIGER

@<TRIPOS>ATOM
      1 C          63.3719   88.1781   16.2631 C.ar    1  UNL1        0.1386
      2 C          64.1386   87.8995   15.0042 C.ar    1  UNL1        0.0369
      3 C          64.6915   89.0357   14.1958 C.ar    1  UNL1        0.0043
      4 C          64.4775   90.4504   14.6462 C.ar    1  UNL1        0.0152
      5 C          63.7108   90.7290   15.9050 C.ar    1  UNL1        0.0043
      6 C          63.1580   89.5928   16.7134 C.ar    1  UNL1        0.0369
      7 C          65.0303   91.5866   13.8378 C.2     1  UNL1        0.0763
      8 N          65.8856   92.6286   14.4955 N.2     1  UNL1       -0.1836
      9 N          66.4384   93.7648   13.6871 N.am    1  UNL1       -0.2062
     10 C          66.1360   93.8589   12.2210 C.2     1  UNL1        0.2410
     11 O          66.6888   94.9951   11.4125 O.2     1  UNL1       -0.2734
     12 C          65.2806   92.8169   11.5632 C.3     1  UNL1        0.0841
     13 C          64.4253   91.7749   10.9055 C.3     1  UNL1        0.0160
     14 C          64.7278   91.6807   12.3716 C.3     1  UNL1        0.0509
     15 H          66.9998   94.4487   14.1188 H       1  UNL1        0.1772
     16 O          62.8191   87.0420   17.0715 O.3     1  UNL1       -0.4754
     17 C          63.1959   85.6295   16.7357 C.3     1  UNL1        0.2068
     18 C          62.9615   85.0994   15.3522 C.3     1  UNL1        0.0646
     19 C          62.5060   83.6834   15.1587 C.3     1  UNL1        0.0759
     20 C          61.0817   80.9694   14.0385 C.3     1  UNL1        0.0173
     21 C          62.2335   81.6882   13.4009 C.3     1  UNL1        0.0576
     22 C          62.9329   81.2858   12.1364 C.3     1  UNL1        0.0174
     23 C          64.0198   82.2846   11.8698 C.3     1  UNL1        0.0187
     24 C          63.9921   83.3043   12.9695 C.3     1  UNL1        0.0721
     25 N          62.8882   82.9358   13.9158 N.3     1  UNL1       -0.2738
@<TRIPOS>BOND
     1    21    20    1
     2    21    22    1
     3    22    23    1
     4    23    24    1
     5    24    25    1
     6    25    19    1
     7    19    18    1
     8    18    17    1
     9    17    16    1
    10    16     1    1
    11     1     2   ar
    12     2     3   ar
    13     3     4   ar
    14     4     7    1
    15     7     8    2
    16     8     9    1
    17     9    10   am
    18    10    11    2
    19    10    12    1
    20    12    13    1
    21    13    14    1
    22     4     5   ar
    23     5     6   ar
    24    25    21    1
    25     6     1   ar
    26    14     7    1
    27    14    12    1
    28     9    15    1
@<TRIPOS>MOLECULE
*****
 25 28 0 0 0
SMALL
GASTEIGER

@<TRIPOS>ATOM
      1 C          61.9658   88.1874   10.8552 C.ar    1  UNL1        0.1386
      2 C          62.8941   88.0439   12.0247 C.ar    1  UNL1        0.0369
      3 C          63.1587   86.6884   12.6102 C.ar    1  UNL1        0.0043
      4 C          62.4951   85.4766   12.0261 C.ar    1  UNL1        0.0152
      5 C          61.5669   85.6202   10.8566 C.ar    1  UNL1        0.0043
      6 C          61.3022   86.9756   10.2712 C.ar    1  UNL1        0.0369
      7 C          62.7598   84.1211   12.6115 C.2     1  UNL1        0.0763
      8 N          62.7333   83.9284   14.0988 N.2     1  UNL1       -0.1836
      9 N          62.9980   82.5729   14.6843 N.am    1  UNL1       -0.2062
     10 C          63.2891   81.4103   13.7824 C.2     1  UNL1        0.2410
     11 O          63.5538   80.0548   14.3679 O.2     1  UNL1       -0.2734
     12 C          63.3156   81.6030   12.2950 C.3     1  UNL1        0.0841
     13 C          63.3420   81.7958   10.8077 C.3     1  UNL1        0.0160
     14 C          63.0509   82.9584   11.7096 C.3     1  UNL1        0.0509
     15 H          62.9806   82.4464   15.6605 H       1  UNL1        0.1772
     16 O          61.7011   89.5429   10.2697 O.3     1  UNL1       -0.4754
     17 C          62.8416   90.3813    9.7737 C.3     1  UNL1        0.2068
     18 C          63.4183   91.4556   10.6474 C.3     1  UNL1        0.0646
     19 C          63.4582   91.2711   12.1355 C.3     1  UNL1        0.0759
     20 C          64.3896   89.7950   14.8928 C.3     1  UNL1        0.0173
     21 C          65.1562   90.8538   14.1573 C.3     1  UNL1        0.0576
     22 C          66.4856   91.4202   14.5600 C.3     1  UNL1        0.0174
     23 C          66.8791   92.4486   13.5414 C.3     1  UNL1        0.0187
     24 C          65.7929   92.5180   12.5092 C.3     1  UNL1        0.0721
     25 N          64.7281   91.5324   12.8898 N.3     1  UNL1       -0.2738
@<TRIPOS>BOND
     1    21    20    1
     2    21    22    1
     3    22    23    1
     4    23    24    1
     5    24    25    1
     6    25    19    1
     7    19    18    1
     8    18    17    1
     9    17    16    1
    10    16     1    1
    11     1     2   ar
    12     2     3   ar
    13     3     4   ar
    14     4     7    1
    15     7     8    2
    16     8     9    1
    17     9    10   am
    18    10    11    2
    19    10    12    1
    20    12    13    1
    21    13    14    1
    22     4     5   ar
    23     5     6   ar
    24    25    21    1
    25     6     1   ar
    26    14     7    1
    27    14    12    1
    28     9    15    1
@<TRIPOS>MOLECULE
*****
 25 28 0 0 0
SMALL
GASTEIGER

@<TRIPOS>ATOM
      1 C          63.6361   86.6550   13.3066 C.ar    1  UNL1        0.1386
      2 C          63.5740   88.1096   12.9454 C.ar    1  UNL1        0.0369
      3 C          62.7547   88.5564   11.7710 C.ar    1  UNL1        0.0043
      4 C          61.9976   87.5486   10.9578 C.ar    1  UNL1        0.0152
      5 C          62.0597   86.0941   11.3190 C.ar    1  UNL1        0.0043
      6 C          62.8790   85.6473   12.4934 C.ar    1  UNL1        0.0369
      7 C          61.1783   87.9954    9.7835 C.2     1  UNL1        0.0763
      8 N          60.8784   89.4522    9.5889 N.2     1  UNL1       -0.1836
      9 N          60.0591   89.8990    8.4146 N.am    1  UNL1       -0.2062
     10 C          59.5398   88.8890    7.4347 C.2     1  UNL1        0.2410
     11 O          58.7205   89.3358    6.2603 O.2     1  UNL1       -0.2734
     12 C          59.8396   87.4322    7.6292 C.3     1  UNL1        0.0841
     13 C          60.1395   85.9754    7.8237 C.3     1  UNL1        0.0160
     14 C          60.6589   86.9854    8.8036 C.3     1  UNL1        0.0509
     15 H          59.8623   90.8551    8.2869 H       1  UNL1        0.1772
     16 O          64.4554   86.2082   14.4810 O.3     1  UNL1       -0.4754
     17 C          63.8107   85.4401   15.5964 C.3     1  UNL1        0.2068
     18 C          63.5837   83.9639   15.4573 C.3     1  UNL1        0.0646
     19 C          64.3406   83.1828   14.4243 C.3     1  UNL1        0.0759
     20 C          64.4791   82.8264   11.1834 C.3     1  UNL1        0.0173
     21 C          63.7052   81.9611   12.1333 C.3     1  UNL1        0.0576
     22 C          62.8590   80.7800   11.7603 C.3     1  UNL1        0.0174
     23 C          62.2724   80.2138   13.0194 C.3     1  UNL1        0.0187
     24 C          62.7560   81.0451   14.1706 C.3     1  UNL1        0.0721
     25 N          63.6415   82.1249   13.6230 N.3     1  UNL1       -0.2738
@<TRIPOS>BOND
     1    21    20    1
     2    21    22    1
     3    22    23    1
     4    23    24    1
     5    24    25    1
     6    25    19    1
     7    19    18    1
     8    18    17    1
     9    17    16    1
    10    16     1    1
    11     1     2   ar
    12     2     3   ar
    13     3     4   ar
    14     4     7    1
    15     7     8    2
    16     8     9    1
    17     9    10   am
    18    10    11    2
    19    10    12    1
    20    12    13    1
    21    13    14    1
    22     4     5   ar
    23     5     6   ar
    24    25    21    1
    25     6     1   ar
    26    14     7    1
    27    14    12    1
    28     9    15    1
@<TRIPOS>MOLECULE
*****
 25 28 0 0 0
SMALL
GASTEIGER

@<TRIPOS>ATOM
      1 C          64.0727   88.3610   13.7868 C.ar    1  UNL1        0.1386
      2 C          64.5127   87.4304   14.8779 C.ar    1  UNL1        0.0369
      3 C          64.1993   85.9664   14.7867 C.ar    1  UNL1        0.0043
      4 C          63.4458   85.4329   13.6044 C.ar    1  UNL1        0.0152
      5 C          63.0058   86.3635   12.5133 C.ar    1  UNL1        0.0043
      6 C          63.3193   87.8276   12.6045 C.ar    1  UNL1        0.0369
      7 C          63.1324   83.9689   13.5131 C.2     1  UNL1        0.0763
      8 N          62.5950   83.2410   14.7095 N.2     1  UNL1       -0.1836
      9 N          62.2816   81.7769   14.6183 N.am    1  UNL1       -0.2062
     10 C          62.5055   81.0408   13.3307 C.2     1  UNL1        0.2410
     11 O          62.1921   79.5767   13.2395 O.2     1  UNL1       -0.2734
     12 C          63.0429   81.7687   12.1343 C.3     1  UNL1        0.0841
     13 C          63.5803   82.4966   10.9379 C.3     1  UNL1        0.0160
     14 C          63.3564   83.2327   12.2255 C.3     1  UNL1        0.0509
     15 H          61.9289   81.2992   15.4035 H       1  UNL1        0.1772
     16 O          64.3861   89.8251   13.8780 O.3     1  UNL1       -0.4754
     17 C          64.0493   90.7368   12.7355 C.3     1  UNL1        0.2068
     18 C          65.0598   91.7320   12.2471 C.3     1  UNL1        0.0646
     19 C          65.4787   92.8702   13.1297 C.3     1  UNL1        0.0759
     20 C          65.0437   92.3433   16.3207 C.3     1  UNL1        0.0173
     21 C          66.3635   92.4288   15.6132 C.3     1  UNL1        0.0576
     22 C          67.7152   92.2873   16.2480 C.3     1  UNL1        0.0174
     23 C          68.7504   92.4419   15.1736 C.3     1  UNL1        0.0187
     24 C          68.0386   92.6791   13.8748 C.3     1  UNL1        0.0721
     25 N          66.5635   92.6711   14.1463 N.3     1  UNL1       -0.2738
@<TRIPOS>BOND
     1    21    20    1
     2    21    22    1
     3    22    23    1
     4    23    24    1
     5    24    25    1
     6    25    19    1
     7    19    18    1
     8    18    17    1
     9    17    16    1
    10    16     1    1
    11     1     2   ar
    12     2     3   ar
    13     3     4   ar
    14     4     7    1
    15     7     8    2
    16     8     9    1
    17     9    10   am
    18    10    11    2
    19    10    12    1
    20    12    13    1
    21    13    14    1
    22     4     5   ar
    23     5     6   ar
    24    25    21    1
    25     6     1   ar
    26    14     7    1
    27    14    12    1
    28     9    15    1
