@<TRIPOS>MOLECULE
*****
 23 26 0 0 0
SMALL
GASTEIGER

@<TRIPOS>ATOM
      1 C          60.7768   89.6334    9.9759 C.ar    1  UNL1       -0.0003
      2 C          60.4618   89.1624   11.3647 C.ar    1  UNL1       -0.0000
      3 C          61.3716   89.5202   12.5024 C.ar    1  UNL1       -0.0006
      4 C          62.5964   90.3489   12.2512 C.ar    1  UNL1       -0.0078
      5 C          62.9114   90.8199   10.8624 C.ar    1  UNL1       -0.0184
      6 C          62.0016   90.4621    9.7247 C.ar    1  UNL1       -0.0040
      7 C          64.1808   91.6169   10.9199 C.3     1  UNL1        0.0480
      8 C          64.6503   91.6386   12.3444 C.2     1  UNL1       -0.0420
      9 C          63.6711   90.8549   13.1672 C.2     1  UNL1       -0.0240
     10 C          65.8827   92.3236   12.8563 C.3     1  UNL1        0.0394
     11 C          66.3353   93.6134   12.2384 C.3     1  UNL1        0.0765
     12 N          67.0284   93.6053   10.9083 N.3     1  UNL1       -0.2724
     13 C          67.7521   92.4415   10.2984 C.3     1  UNL1        0.0721
     14 C          68.2906   92.8765    8.9676 C.3     1  UNL1        0.0188
     15 C          67.8997   94.3089    8.7551 C.3     1  UNL1        0.0188
     16 C          67.1196   94.7593    9.9545 C.3     1  UNL1        0.0721
     17 C          63.7523   90.6186   14.6462 C.3     1  UNL1        0.0730
     18 C          63.7032   89.2200   15.1861 C.ar    1  UNL1        0.0825
     19 C          63.0477   88.9489   16.5078 C.ar    1  UNL1        0.1139
     20 N          62.9986   87.5503   17.0477 N.ar    1  UNL1       -0.2394
     21 C          63.6049   86.4228   16.2660 C.ar    1  UNL1        0.1195
     22 C          64.2604   86.6939   14.9443 C.ar    1  UNL1        0.1191
     23 N          64.3095   88.0925   14.4044 N.ar    1  UNL1       -0.2446
@<TRIPOS>BOND
     1     1     2   ar
     2     2     3   ar
     3     3     4   ar
     4     4     5   ar
     5     5     6   ar
     6     5     7    1
     7     7     8    1
     8     8    10    1
     9    10    11    1
    10    11    12    1
    11    12    13    1
    12    13    14    1
    13    14    15    1
    14    15    16    1
    15     8     9    2
    16     9    17    1
    17    17    18    1
    18    18    19   ar
    19    19    20   ar
    20    20    21   ar
    21    21    22   ar
    22    22    23   ar
    23     6     1   ar
    24    16    12    1
    25    23    18   ar
    26     9     4    1
@<TRIPOS>MOLECULE
*****
 23 26 0 0 0
SMALL
GASTEIGER

@<TRIPOS>ATOM
      1 C          62.7651   79.8140   11.4261 C.ar    1  UNL1       -0.0003
      2 C          63.1186   80.8756   10.4271 C.ar    1  UNL1       -0.0000
      3 C          63.1925   82.3119   10.8533 C.ar    1  UNL1       -0.0006
      4 C          62.9129   82.6866   12.2786 C.ar    1  UNL1       -0.0078
      5 C          62.5593   81.6250   13.2776 C.ar    1  UNL1       -0.0184
      6 C          62.4854   80.1888   12.8513 C.ar    1  UNL1       -0.0040
      7 C          62.3370   82.2914   14.6030 C.3     1  UNL1        0.0480
      8 C          62.5532   83.7648   14.4231 C.2     1  UNL1       -0.0420
      9 C          62.9091   84.0090   12.9865 C.2     1  UNL1       -0.0240
     10 C          62.4344   84.8104   15.4920 C.3     1  UNL1        0.0394
     11 C          63.6439   85.5889   15.9173 C.3     1  UNL1        0.0765
     12 N          63.6241   87.0882   15.8744 N.3     1  UNL1       -0.2724
     13 C          62.9840   87.9907   16.8871 C.3     1  UNL1        0.0721
     14 C          63.2052   89.4085   16.4498 C.3     1  UNL1        0.0188
     15 C          63.9820   89.3820   15.1669 C.3     1  UNL1        0.0188
     16 C          64.2409   87.9480   14.8114 C.3     1  UNL1        0.0721
     17 C          63.2087   85.3417   12.3667 C.3     1  UNL1        0.0730
     18 C          62.3036   85.8964   11.3068 C.ar    1  UNL1        0.0825
     19 C          62.4719   85.4701    9.8786 C.ar    1  UNL1        0.1139
     20 N          61.5669   86.0248    8.8187 N.ar    1  UNL1       -0.2394
     21 C          60.4936   87.0057    9.1871 C.ar    1  UNL1        0.1195
     22 C          60.3253   87.4320   10.6154 C.ar    1  UNL1        0.1191
     23 N          61.2303   86.8773   11.6752 N.ar    1  UNL1       -0.2446
@<TRIPOS>BOND
     1     1     2   ar
     2     2     3   ar
     3     3     4   ar
     4     4     5   ar
     5     5     6   ar
     6     5     7    1
     7     7     8    1
     8     8    10    1
     9    10    11    1
    10    11    12    1
    11    12    13    1
    12    13    14    1
    13    14    15    1
    14    15    16    1
    15     8     9    2
    16     9    17    1
    17    17    18    1
    18    18    19   ar
    19    19    20   ar
    20    20    21   ar
    21    21    22   ar
    22    22    23   ar
    23     6     1   ar
    24    16    12    1
    25    23    18   ar
    26     9     4    1
@<TRIPOS>MOLECULE
*****
 23 26 0 0 0
SMALL
GASTEIGER

@<TRIPOS>ATOM
      1 C          61.3276   87.2490    9.6368 C.ar    1  UNL1       -0.0003
      2 C          61.6441   85.9620   10.3392 C.ar    1  UNL1       -0.0000
      3 C          62.4471   85.9768   11.6061 C.ar    1  UNL1       -0.0006
      4 C          62.9335   87.2786   12.1706 C.ar    1  UNL1       -0.0078
      5 C          62.6169   88.5656   11.4682 C.ar    1  UNL1       -0.0184
      6 C          61.8140   88.5508   10.2013 C.ar    1  UNL1       -0.0040
      7 C          63.2271   89.6863   12.2568 C.3     1  UNL1        0.0480
      8 C          63.9207   89.0919   13.4466 C.2     1  UNL1       -0.0420
      9 C          63.7392   87.6038   13.3933 C.2     1  UNL1       -0.0240
     10 C          64.6651   89.8520   14.5040 C.3     1  UNL1        0.0394
     11 C          64.9413   91.3151   14.3217 C.3     1  UNL1        0.0765
     12 N          66.2503   91.8930   14.7715 N.3     1  UNL1       -0.2724
     13 C          66.4798   92.6877   16.0228 C.3     1  UNL1        0.0721
     14 C          67.9311   93.0635   16.0735 C.3     1  UNL1        0.0188
     15 C          68.5985   92.5010   14.8536 C.3     1  UNL1        0.0188
     16 C          67.5597   91.7776   14.0489 C.3     1  UNL1        0.0721
     17 C          64.2703   86.6147   14.3881 C.3     1  UNL1        0.0730
     18 C          63.8118   85.1872   14.3443 C.ar    1  UNL1        0.0825
     19 C          64.6404   84.1546   13.6392 C.ar    1  UNL1        0.1139
     20 N          64.1818   82.7270   13.5955 N.ar    1  UNL1       -0.2394
     21 C          62.8948   82.3321   14.2568 C.ar    1  UNL1        0.1195
     22 C          62.0662   83.3647   14.9619 C.ar    1  UNL1        0.1191
     23 N          62.5247   84.7922   15.0056 N.ar    1  UNL1       -0.2446
@<TRIPOS>BOND
     1     1     2   ar
     2     2     3   ar
     3     3     4   ar
     4     4     5   ar
     5     5     6   ar
     6     5     7    1
     7     7     8    1
     8     8    10    1
     9    10    11    1
    10    11    12    1
    11    12    13    1
    12    13    14    1
    13    14    15    1
    14    15    16    1
    15     8     9    2
    16     9    17    1
    17    17    18    1
    18    18    19   ar
    19    19    20   ar
    20    20    21   ar
    21    21    22   ar
    22    22    23   ar
    23     6     1   ar
    24    16    12    1
    25    23    18   ar
    26     9     4    1
@<TRIPOS>MOLECULE
*****
 23 26 0 0 0
SMALL
GASTEIGER

@<TRIPOS>ATOM
      1 C          61.3002   87.0582    9.9927 C.ar    1  UNL1       -0.0003
      2 C          61.9461   86.1835   11.0259 C.ar    1  UNL1       -0.0000
      3 C          62.8074   86.7928   12.0922 C.ar    1  UNL1       -0.0006
      4 C          63.0227   88.2769   12.1252 C.ar    1  UNL1       -0.0078
      5 C          62.3768   89.1516   11.0920 C.ar    1  UNL1       -0.0184
      6 C          61.5155   88.5423   10.0257 C.ar    1  UNL1       -0.0040
      7 C          62.7684   90.5715   11.3763 C.3     1  UNL1        0.0480
      8 C          63.6563   90.5742   12.5852 C.2     1  UNL1       -0.0420
      9 C          63.8135   89.1561   13.0481 C.2     1  UNL1       -0.0240
     10 C          64.2779   91.7829   13.2199 C.3     1  UNL1        0.0394
     11 C          65.7166   92.1134   12.9539 C.3     1  UNL1        0.0765
     12 N          66.6405   92.4150   14.0965 N.3     1  UNL1       -0.2724
     13 C          67.3482   91.4036   14.9486 C.3     1  UNL1        0.0721
     14 C          68.1640   92.1445   15.9663 C.3     1  UNL1        0.0188
     15 C          67.9605   93.6138   15.7430 C.3     1  UNL1        0.0188
     16 C          67.0189   93.7809   14.5874 C.3     1  UNL1        0.0721
     17 C          64.6198   88.6976   14.2269 C.3     1  UNL1        0.0730
     18 C          63.9978   87.8051   15.2597 C.ar    1  UNL1        0.0825
     19 C          64.1553   86.3169   15.1578 C.ar    1  UNL1        0.1139
     20 N          63.5333   85.4245   16.1906 N.ar    1  UNL1       -0.2394
     21 C          62.7538   86.0202   17.3252 C.ar    1  UNL1        0.1195
     22 C          62.5963   87.5084   17.4271 C.ar    1  UNL1        0.1191
     23 N          63.2183   88.4009   16.3943 N.ar    1  UNL1       -0.2446
@<TRIPOS>BOND
     1     1     2   ar
     2     2     3   ar
     3     3     4   ar
     4     4     5   ar
     5     5     6   ar
     6     5     7    1
     7     7     8    1
     8     8    10    1
     9    10    11    1
    10    11    12    1
    11    12    13    1
    12    13    14    1
    13    14    15    1
    14    15    16    1
    15     8     9    2
    16     9    17    1
    17    17    18    1
    18    18    19   ar
    19    19    20   ar
    20    20    21   ar
    21    21    22   ar
    22    22    23   ar
    23     6     1   ar
    24    16    12    1
    25    23    18   ar
    26     9     4    1
@<TRIPOS>MOLECULE
*****
 23 26 0 0 0
SMALL
GASTEIGER

@<TRIPOS>ATOM
      1 C          64.1424   90.9713   13.3924 C.ar    1  UNL1       -0.0003
      2 C          63.4264   90.5054   12.1594 C.ar    1  UNL1       -0.0000
      3 C          63.1363   89.0464   11.9667 C.ar    1  UNL1       -0.0006
      4 C          63.5622   88.0533   13.0069 C.ar    1  UNL1       -0.0078
      5 C          64.2783   88.5191   14.2398 C.ar    1  UNL1       -0.0184
      6 C          64.5684   89.9781   14.4326 C.ar    1  UNL1       -0.0040
      7 C          64.5743   87.3165   15.0863 C.3     1  UNL1        0.0480
      8 C          64.0411   86.1075   14.3764 C.2     1  UNL1       -0.0420
      9 C          63.4156   86.5628   13.0913 C.2     1  UNL1       -0.0240
     10 C          64.1195   84.6917   14.8657 C.3     1  UNL1        0.0394
     11 C          64.3889   83.5776   13.8981 C.3     1  UNL1        0.0765
     12 N          63.4184   82.4406   13.7744 N.3     1  UNL1       -0.2724
     13 C          63.6173   81.1964   12.9604 C.3     1  UNL1        0.0721
     14 C          62.4004   80.3350   13.1259 C.3     1  UNL1        0.0188
     15 C          61.4497   81.0468   14.0420 C.3     1  UNL1        0.0188
     16 C          62.0789   82.3481   14.4428 C.3     1  UNL1        0.0721
     17 C          62.7588   85.6823   12.0699 C.3     1  UNL1        0.0730
     18 C          61.8958   86.2869   11.0022 C.ar    1  UNL1        0.0825
     19 C          62.1871   86.0109    9.5569 C.ar    1  UNL1        0.1139
     20 N          61.3241   86.6155    8.4892 N.ar    1  UNL1       -0.2394
     21 C          60.1699   87.4959    8.8669 C.ar    1  UNL1        0.1195
     22 C          59.8787   87.7718   10.3123 C.ar    1  UNL1        0.1191
     23 N          60.7417   87.1673   11.3799 N.ar    1  UNL1       -0.2446
@<TRIPOS>BOND
     1     1     2   ar
     2     2     3   ar
     3     3     4   ar
     4     4     5   ar
     5     5     6   ar
     6     5     7    1
     7     7     8    1
     8     8    10    1
     9    10    11    1
    10    11    12    1
    11    12    13    1
    12    13    14    1
    13    14    15    1
    14    15    16    1
    15     8     9    2
    16     9    17    1
    17    17    18    1
    18    18    19   ar
    19    19    20   ar
    20    20    21   ar
    21    21    22   ar
    22    22    23   ar
    23     6     1   ar
    24    16    12    1
    25    23    18   ar
    26     9     4    1
@<TRIPOS>MOLECULE
*****
 23 26 0 0 0
SMALL
GASTEIGER

@<TRIPOS>ATOM
      1 C          66.4923   92.3655   16.1063 C.ar    1  UNL1       -0.0003
      2 C          67.5833   92.8685   15.2081 C.ar    1  UNL1       -0.0000
      3 C          67.4040   92.8353   13.7192 C.ar    1  UNL1       -0.0006
      4 C          66.1338   92.2991   13.1285 C.ar    1  UNL1       -0.0078
      5 C          65.0428   91.7961   14.0267 C.ar    1  UNL1       -0.0184
      6 C          65.2221   91.8293   15.5156 C.ar    1  UNL1       -0.0040
      7 C          63.9097   91.3280   13.1624 C.3     1  UNL1        0.0480
      8 C          64.3004   91.5418   11.7301 C.2     1  UNL1       -0.0420
      9 C          65.6749   92.1419   11.7091 C.2     1  UNL1       -0.0240
     10 C          63.4635   91.2130   10.5294 C.3     1  UNL1        0.0394
     11 C          62.0664   90.6968   10.7075 C.3     1  UNL1        0.0765
     12 N          61.7390   89.2786   10.3448 N.3     1  UNL1       -0.2724
     13 C          62.3659   88.0504   10.9351 C.3     1  UNL1        0.0721
     14 C          61.7415   86.8524   10.2832 C.3     1  UNL1        0.0188
     15 C          60.7287   87.3402    9.2902 C.3     1  UNL1        0.0188
     16 C          60.7272   88.8397    9.3282 C.3     1  UNL1        0.0721
     17 C          66.4539   92.5188   10.4839 C.3     1  UNL1        0.0730
     18 C          66.6453   93.9643   10.1320 C.ar    1  UNL1        0.0825
     19 C          67.4257   94.3411    8.9077 C.ar    1  UNL1        0.1139
     20 N          67.6171   95.7867    8.5557 N.ar    1  UNL1       -0.2394
     21 C          67.0281   96.8553    9.4281 C.ar    1  UNL1        0.1195
     22 C          66.2477   96.4785   10.6524 C.ar    1  UNL1        0.1191
     23 N          66.0563   95.0330   11.0043 N.ar    1  UNL1       -0.2446
@<TRIPOS>BOND
     1     1     2   ar
     2     2     3   ar
     3     3     4   ar
     4     4     5   ar
     5     5     6   ar
     6     5     7    1
     7     7     8    1
     8     8    10    1
     9    10    11    1
    10    11    12    1
    11    12    13    1
    12    13    14    1
    13    14    15    1
    14    15    16    1
    15     8     9    2
    16     9    17    1
    17    17    18    1
    18    18    19   ar
    19    19    20   ar
    20    20    21   ar
    21    21    22   ar
    22    22    23   ar
    23     6     1   ar
    24    16    12    1
    25    23    18   ar
    26     9     4    1
@<TRIPOS>MOLECULE
*****
 23 26 0 0 0
SMALL
GASTEIGER

@<TRIPOS>ATOM
      1 C          67.6103   93.4982   14.6761 C.ar    1  UNL1       -0.0003
      2 C          67.1550   92.9798   16.0080 C.ar    1  UNL1       -0.0000
      3 C          65.9812   92.0495   16.0893 C.ar    1  UNL1       -0.0006
      4 C          65.2626   91.6375   14.8387 C.ar    1  UNL1       -0.0078
      5 C          65.7179   92.1559   13.5069 C.ar    1  UNL1       -0.0184
      6 C          66.8917   93.0863   13.4256 C.ar    1  UNL1       -0.0040
      7 C          64.8195   91.5791   12.4531 C.3     1  UNL1        0.0480
      8 C          63.8090   90.7042   13.1339 C.2     1  UNL1       -0.0420
      9 C          64.0829   90.7403   14.6082 C.2     1  UNL1       -0.0240
     10 C          62.7164   89.9292   12.4588 C.3     1  UNL1        0.0394
     11 C          62.6445   89.8835   10.9612 C.3     1  UNL1        0.0765
     12 N          61.8134   88.8357   10.2819 N.3     1  UNL1       -0.2724
     13 C          60.6345   89.0875    9.3893 C.3     1  UNL1        0.0721
     14 C          60.1078   87.7596    8.9316 C.3     1  UNL1        0.0188
     15 C          60.9612   86.6873    9.5413 C.3     1  UNL1        0.0188
     16 C          62.0154   87.3524   10.3758 C.3     1  UNL1        0.0721
     17 C          63.3123   90.0078   15.6663 C.3     1  UNL1        0.0730
     18 C          63.4888   88.5276   15.8334 C.ar    1  UNL1        0.0825
     19 C          62.9430   87.8398   17.0495 C.ar    1  UNL1        0.1139
     20 N          63.1195   86.3596   17.2166 N.ar    1  UNL1       -0.2394
     21 C          63.8419   85.5673   16.1677 C.ar    1  UNL1        0.1195
     22 C          64.3877   86.2551   14.9516 C.ar    1  UNL1        0.1191
     23 N          64.2112   87.7353   14.7845 N.ar    1  UNL1       -0.2446
@<TRIPOS>BOND
     1     1     2   ar
     2     2     3   ar
     3     3     4   ar
     4     4     5   ar
     5     5     6   ar
     6     5     7    1
     7     7     8    1
     8     8    10    1
     9    10    11    1
    10    11    12    1
    11    12    13    1
    12    13    14    1
    13    14    15    1
    14    15    16    1
    15     8     9    2
    16     9    17    1
    17    17    18    1
    18    18    19   ar
    19    19    20   ar
    20    20    21   ar
    21    21    22   ar
    22    22    23   ar
    23     6     1   ar
    24    16    12    1
    25    23    18   ar
    26     9     4    1
@<TRIPOS>MOLECULE
*****
 23 26 0 0 0
SMALL
GASTEIGER

@<TRIPOS>ATOM
      1 C          61.8997   90.1277    9.9510 C.ar    1  UNL1       -0.0003
      2 C          62.6157   90.8624   11.0453 C.ar    1  UNL1       -0.0000
      3 C          63.2240   90.1018   12.1861 C.ar    1  UNL1       -0.0006
      4 C          63.1164   88.6064   12.2325 C.ar    1  UNL1       -0.0078
      5 C          62.4004   87.8717   11.1382 C.ar    1  UNL1       -0.0184
      6 C          61.7921   88.6323    9.9975 C.ar    1  UNL1       -0.0040
      7 C          62.4540   86.4058   11.4519 C.3     1  UNL1        0.0480
      8 C          63.2032   86.2346   12.7401 C.2     1  UNL1       -0.0420
      9 C          63.6125   87.5946   13.2225 C.2     1  UNL1       -0.0240
     10 C          63.4922   84.9320   13.4256 C.3     1  UNL1        0.0394
     11 C          63.6603   83.6800   12.6168 C.3     1  UNL1        0.0765
     12 N          62.9631   82.4188   13.0332 N.3     1  UNL1       -0.2724
     13 C          62.0615   82.2611   14.2216 C.3     1  UNL1        0.0721
     14 C          61.5863   80.8387   14.2572 C.3     1  UNL1        0.0188
     15 C          62.1943   80.1175   13.0910 C.3     1  UNL1        0.0188
     16 C          63.0453   81.0941   12.3346 C.3     1  UNL1        0.0721
     17 C          64.3828   87.8909   14.4751 C.3     1  UNL1        0.0730
     18 C          64.3609   89.2720   15.0601 C.ar    1  UNL1        0.0825
     19 C          63.3262   89.6369   16.0829 C.ar    1  UNL1        0.1139
     20 N          63.3043   91.0180   16.6679 N.ar    1  UNL1       -0.2394
     21 C          64.3170   92.0341   16.2300 C.ar    1  UNL1        0.1195
     22 C          65.3517   91.6692   15.2071 C.ar    1  UNL1        0.1191
     23 N          65.3736   90.2881   14.6222 N.ar    1  UNL1       -0.2446
@<TRIPOS>BOND
     1     1     2   ar
     2     2     3   ar
     3     3     4   ar
     4     4     5   ar
     5     5     6   ar
     6     5     7    1
     7     7     8    1
     8     8    10    1
     9    10    11    1
    10    11    12    1
    11    12    13    1
    12    13    14    1
    13    14    15    1
    14    15    16    1
    15     8     9    2
    16     9    17    1
    17    17    18    1
    18    18    19   ar
    19    19    20   ar
    20    20    21   ar
    21    21    22   ar
    22    22    23   ar
    23     6     1   ar
    24    16    12    1
    25    23    18   ar
    26     9     4    1
@<TRIPOS>MOLECULE
*****
 23 26 0 0 0
SMALL
GASTEIGER

@<TRIPOS>ATOM
      1 C          64.1447   85.3183   14.1885 C.ar    1  UNL1       -0.0003
      2 C          64.5966   86.4413   15.0742 C.ar    1  UNL1       -0.0000
      3 C          64.3540   87.8638   14.6646 C.ar    1  UNL1       -0.0006
      4 C          63.6596   88.1632   13.3692 C.ar    1  UNL1       -0.0078
      5 C          63.2077   87.0402   12.4835 C.ar    1  UNL1       -0.0184
      6 C          63.4502   85.6178   12.8931 C.ar    1  UNL1       -0.0040
      7 C          62.5535   87.6386   11.2735 C.3     1  UNL1        0.0480
      8 C          62.6011   89.1315   11.4115 C.2     1  UNL1       -0.0420
      9 C          63.2847   89.4557   12.7067 C.2     1  UNL1       -0.0240
     10 C          62.0601   90.1257   10.4271 C.3     1  UNL1        0.0394
     11 C          60.6036   90.1100   10.0688 C.3     1  UNL1        0.0765
     12 N          60.0672   89.0471    9.1564 N.3     1  UNL1       -0.2724
     13 C          59.7471   89.2143    7.7005 C.3     1  UNL1        0.0721
     14 C          59.2387   87.9009    7.1840 C.3     1  UNL1        0.0188
     15 C          59.2446   86.9222    8.3207 C.3     1  UNL1        0.0188
     16 C          59.7567   87.6306    9.5396 C.3     1  UNL1        0.0721
     17 C          63.5474   90.8309   13.2450 C.3     1  UNL1        0.0730
     18 C          64.9569   91.3236   13.3887 C.ar    1  UNL1        0.0825
     19 C          65.5760   92.1525   12.3026 C.ar    1  UNL1        0.1139
     20 N          66.9855   92.6451   12.4463 N.ar    1  UNL1       -0.2394
     21 C          67.7759   92.3088   13.6760 C.ar    1  UNL1        0.1195
     22 C          67.1567   91.4799   14.7621 C.ar    1  UNL1        0.1191
     23 N          65.7472   90.9873   14.6184 N.ar    1  UNL1       -0.2446
@<TRIPOS>BOND
     1     1     2   ar
     2     2     3   ar
     3     3     4   ar
     4     4     5   ar
     5     5     6   ar
     6     5     7    1
     7     7     8    1
     8     8    10    1
     9    10    11    1
    10    11    12    1
    11    12    13    1
    12    13    14    1
    13    14    15    1
    14    15    16    1
    15     8     9    2
    16     9    17    1
    17    17    18    1
    18    18    19   ar
    19    19    20   ar
    20    20    21   ar
    21    21    22   ar
    22    22    23   ar
    23     6     1   ar
    24    16    12    1
    25    23    18   ar
    26     9     4    1
