@<TRIPOS>MOLECULE
*****
 35 39 0 0 0
SMALL
GASTEIGER

@<TRIPOS>ATOM
      1 C          66.5949   93.8860   13.3473 C.3     1  UNL1        0.2159
      2 N          65.7549   92.6732   13.0756 N.am    1  UNL1       -0.1449
      3 C          65.7464   91.5331   14.0501 C.2     1  UNL1        0.3728
      4 N          66.5779   91.6056   15.2966 N.2     1  UNL1       -0.1329
      5 N          64.9064   90.3204   13.7784 N.pl3   1  UNL1       -0.2247
      6 C          64.0750   90.2479   12.5320 C.3     1  UNL1        0.1559
      7 C          63.1546   89.1899   11.9996 C.3     1  UNL1        0.1327
      8 N          62.5943   89.6762   10.6959 N.pl3   1  UNL1       -0.2740
      9 C          63.1684   91.0348   10.4226 C.3     1  UNL1        0.1079
     10 C          64.0835   91.3881   11.5574 C.3     1  UNL1        0.1498
     11 C          64.9235   92.6008   11.8292 C.2     1  UNL1        0.2919
     12 O          64.9321   93.7410   10.8546 O.2     1  UNL1       -0.2563
     13 H          67.1292   92.4015   15.4750 H       1  UNL1        0.3058
     14 H          64.9008   89.5720   14.4181 H       1  UNL1        0.2454
     15 C          61.6294   88.9342    9.8194 C.ar    1  UNL1        0.2204
     16 N          60.6631   89.6921    8.9581 N.ar    1  UNL1       -0.2097
     17 C          59.6981   88.9501    8.0816 C.ar    1  UNL1        0.1330
     18 C          59.6994   87.4502    8.0664 C.ar    1  UNL1        0.1784
     19 F          58.7344   86.7082    7.1899 F       1  UNL1       -0.2009
     20 C          60.6657   86.6922    8.9277 C.ar    1  UNL1        0.1330
     21 N          61.6307   87.4343    9.8042 N.ar    1  UNL1       -0.2097
     22 C          63.9657   89.0364   13.4097 C.ar    1  UNL1        0.0397
     23 C          63.6691   87.6394   12.9512 C.ar    1  UNL1        0.0057
     24 C          63.6538   86.7488   14.1582 C.ar    1  UNL1        0.0068
     25 C          63.9410   87.5955   15.3626 C.ar    1  UNL1        0.0352
     26 S          64.1337   89.0093   14.9000 S.2     1  UNL1       -0.0878
     27 C          63.3966   85.2710   14.1603 C.ar    1  UNL1        0.0012
     28 C          63.0469   84.5725   15.4408 C.ar    1  UNL1        0.0009
     29 C          62.7897   83.0947   15.4429 C.ar    1  UNL1        0.0121
     30 C          62.8821   82.3154   14.1646 C.ar    1  UNL1        0.0673
     31 CL         62.6249   80.8377   14.1667 Cl      1  UNL1       -0.0815
     32 C          63.2318   83.0140   12.8841 C.ar    1  UNL1        0.0790
     33 C          63.4890   84.4918   12.8820 C.ar    1  UNL1        0.0111
     34 C          63.3243   82.2348   11.6057 C.1     1  UNL1        0.1013
     35 N          63.4166   81.4557   10.3272 N.1     1  UNL1       -0.1908
@<TRIPOS>BOND
     1     1     2    1
     2     2     3    1
     3     3     4    2
     4     3     5    1
     5     5     6    1
     6     6    22    1
     7    22    23   ar
     8    23    24   ar
     9    24    27    1
    10    27    28   ar
    11    28    29   ar
    12    29    30   ar
    13    30    31    1
    14    30    32   ar
    15    32    34    1
    16    34    35    3
    17    32    33   ar
    18    24    25   ar
    19    25    26   ar
    20     6     7    1
    21     7     8    1
    22     8    15    1
    23    15    16   ar
    24    16    17   ar
    25    17    18   ar
    26    18    19    1
    27    18    20   ar
    28    20    21   ar
    29     8     9    1
    30    10     9    1
    31    10    11    1
    32    11    12    2
    33    11     2   am
    34    10     6    1
    35    26    22   ar
    36    21    15   ar
    37    33    27   ar
    38     4    13    1
    39     5    14    1
@<TRIPOS>MOLECULE
*****
 35 39 0 0 0
SMALL
GASTEIGER

@<TRIPOS>ATOM
      1 C          64.1599   83.0691   14.5229 C.3     1  UNL1        0.2159
      2 N          63.7065   84.2948   13.7864 N.am    1  UNL1       -0.1449
      3 C          64.1251   85.6540   14.2631 C.2     1  UNL1        0.3728
      4 N          64.9972   85.7876   15.4763 N.2     1  UNL1       -0.1329
      5 N          63.6718   86.8796   13.5266 N.pl3   1  UNL1       -0.2247
      6 C          62.7997   86.7460   12.3135 C.3     1  UNL1        0.1559
      7 C          62.2013   87.7656   11.3903 C.3     1  UNL1        0.1327
      8 N          61.4129   87.0365   10.3431 N.pl3   1  UNL1       -0.2740
      9 C          61.5240   85.5662   10.6190 C.3     1  UNL1        0.1079
     10 C          62.3811   85.3867   11.8368 C.3     1  UNL1        0.1498
     11 C          62.8345   84.1611   12.5733 C.2     1  UNL1        0.2919
     12 O          62.4159   82.8019   12.0966 O.2     1  UNL1       -0.2563
     13 H          65.2948   84.9832   15.9597 H       1  UNL1        0.3058
     14 H          63.9465   87.7717   13.8395 H       1  UNL1        0.2454
     15 C          60.6476   87.6669    9.2175 C.ar    1  UNL1        0.2204
     16 N          60.7239   89.1484    8.9959 N.ar    1  UNL1       -0.2097
     17 C          59.9587   89.7788    7.8702 C.ar    1  UNL1        0.1330
     18 C          59.1171   88.9276    6.9662 C.ar    1  UNL1        0.1784
     19 F          58.3519   89.5580    5.8406 F       1  UNL1       -0.2009
     20 C          59.0408   87.4460    7.1878 C.ar    1  UNL1        0.1330
     21 N          59.8061   86.8157    8.3134 N.ar    1  UNL1       -0.2097
     22 C          63.1361   88.1636   12.6699 C.ar    1  UNL1        0.0397
     23 C          64.2724   88.6075   13.5427 C.ar    1  UNL1        0.0057
     24 C          64.2337   90.1045   13.6284 C.ar    1  UNL1        0.0068
     25 C          63.0736   90.5859   12.8085 C.ar    1  UNL1        0.0352
     26 S          62.3952   89.3863   12.2161 S.2     1  UNL1       -0.0878
     27 C          65.1878   90.9685   14.3986 C.ar    1  UNL1        0.0012
     28 C          64.7232   91.6835   15.6327 C.ar    1  UNL1        0.0009
     29 C          65.6773   92.5475   16.4029 C.ar    1  UNL1        0.0121
     30 C          67.0960   92.6965   15.9391 C.ar    1  UNL1        0.0673
     31 CL         68.0500   93.5605   16.7094 Cl      1  UNL1       -0.0815
     32 C          67.5605   91.9816   14.7051 C.ar    1  UNL1        0.0790
     33 C          66.6065   91.1176   13.9348 C.ar    1  UNL1        0.0111
     34 C          68.9792   92.1306   14.2412 C.1     1  UNL1        0.1013
     35 N          70.3979   92.2797   13.7773 N.1     1  UNL1       -0.1908
@<TRIPOS>BOND
     1     1     2    1
     2     2     3    1
     3     3     4    2
     4     3     5    1
     5     5     6    1
     6     6    22    1
     7    22    23   ar
     8    23    24   ar
     9    24    27    1
    10    27    28   ar
    11    28    29   ar
    12    29    30   ar
    13    30    31    1
    14    30    32   ar
    15    32    34    1
    16    34    35    3
    17    32    33   ar
    18    24    25   ar
    19    25    26   ar
    20     6     7    1
    21     7     8    1
    22     8    15    1
    23    15    16   ar
    24    16    17   ar
    25    17    18   ar
    26    18    19    1
    27    18    20   ar
    28    20    21   ar
    29     8     9    1
    30    10     9    1
    31    10    11    1
    32    11    12    2
    33    11     2   am
    34    10     6    1
    35    26    22   ar
    36    21    15   ar
    37    33    27   ar
    38     4    13    1
    39     5    14    1
@<TRIPOS>MOLECULE
*****
 35 39 0 0 0
SMALL
GASTEIGER

@<TRIPOS>ATOM
      1 C          63.8729   81.0365   14.1201 C.3     1  UNL1        0.2159
      2 N          63.5810   82.4350   13.6627 N.am    1  UNL1       -0.1449
      3 C          64.1009   83.6040   14.4456 C.2     1  UNL1        0.3728
      4 N          64.9128   83.3746   15.6859 N.2     1  UNL1       -0.1329
      5 N          63.8091   85.0025   13.9882 N.pl3   1  UNL1       -0.2247
      6 C          62.9973   85.2318   12.7479 C.3     1  UNL1        0.1559
      7 C          62.5519   86.4869   12.0577 C.3     1  UNL1        0.1327
      8 N          61.7567   86.0935   10.8482 N.pl3   1  UNL1       -0.2740
      9 C          61.7106   84.5953   10.7909 C.3     1  UNL1        0.1079
     10 C          62.4773   84.0627   11.9650 C.3     1  UNL1        0.1498
     11 C          62.7692   82.6643   12.4224 C.2     1  UNL1        0.2919
     12 O          62.2493   81.4952   11.6395 O.2     1  UNL1       -0.2563
     13 H          65.1044   82.4568   15.9861 H       1  UNL1        0.3058
     14 H          64.1503   85.7698   14.5020 H       1  UNL1        0.2454
     15 C          61.1195   87.0333    9.8680 C.ar    1  UNL1        0.2204
     16 N          61.2888   88.5148   10.0306 N.ar    1  UNL1       -0.2097
     17 C          60.6515   89.4545    9.0504 C.ar    1  UNL1        0.1330
     18 C          59.8450   88.9128    7.9075 C.ar    1  UNL1        0.1784
     19 F          59.2078   89.8525    6.9274 F       1  UNL1       -0.2009
     20 C          59.6757   87.4313    7.7449 C.ar    1  UNL1        0.1330
     21 N          60.3130   86.4915    8.7251 N.ar    1  UNL1       -0.2097
     22 C          63.4478   86.4927   13.4241 C.ar    1  UNL1        0.0397
     23 C          63.8591   87.7621   12.7389 C.ar    1  UNL1        0.0057
     24 C          64.2316   88.7594   13.7956 C.ar    1  UNL1        0.0068
     25 C          64.0505   88.1065   15.1338 C.ar    1  UNL1        0.0352
     26 S          63.5660   86.7055   14.9042 S.2     1  UNL1       -0.0878
     27 C          64.7025   90.1633   13.5561 C.ar    1  UNL1        0.0012
     28 C          64.2329   90.9159   12.3465 C.ar    1  UNL1        0.0009
     29 C          64.7039   92.3198   12.1071 C.ar    1  UNL1        0.0121
     30 C          65.6444   92.9711   13.0772 C.ar    1  UNL1        0.0673
     31 CL         66.1154   94.3750   12.8377 Cl      1  UNL1       -0.0815
     32 C          66.1140   92.2185   14.2867 C.ar    1  UNL1        0.0790
     33 C          65.6431   90.8146   14.5262 C.ar    1  UNL1        0.0111
     34 C          67.0546   92.8698   15.2569 C.1     1  UNL1        0.1013
     35 N          67.9952   93.5210   16.2271 N.1     1  UNL1       -0.1908
@<TRIPOS>BOND
     1     1     2    1
     2     2     3    1
     3     3     4    2
     4     3     5    1
     5     5     6    1
     6     6    22    1
     7    22    23   ar
     8    23    24   ar
     9    24    27    1
    10    27    28   ar
    11    28    29   ar
    12    29    30   ar
    13    30    31    1
    14    30    32   ar
    15    32    34    1
    16    34    35    3
    17    32    33   ar
    18    24    25   ar
    19    25    26   ar
    20     6     7    1
    21     7     8    1
    22     8    15    1
    23    15    16   ar
    24    16    17   ar
    25    17    18   ar
    26    18    19    1
    27    18    20   ar
    28    20    21   ar
    29     8     9    1
    30    10     9    1
    31    10    11    1
    32    11    12    2
    33    11     2   am
    34    10     6    1
    35    26    22   ar
    36    21    15   ar
    37    33    27   ar
    38     4    13    1
    39     5    14    1
@<TRIPOS>MOLECULE
*****
 35 39 0 0 0
SMALL
GASTEIGER

@<TRIPOS>ATOM
      1 C          60.1346   88.7783    8.4334 C.3     1  UNL1        0.2159
      2 N          61.0637   88.7371    9.6104 N.am    1  UNL1       -0.1449
      3 C          61.3165   87.4408   10.3214 C.2     1  UNL1        0.3728
      4 N          60.6402   86.1855    9.8554 N.2     1  UNL1       -0.1329
      5 N          62.2456   87.3996   11.4983 N.pl3   1  UNL1       -0.2247
      6 C          62.9218   88.6548   11.9642 C.3     1  UNL1        0.1559
      7 C          63.8814   88.9207   13.0860 C.3     1  UNL1        0.1327
      8 N          64.2216   90.3815   13.0683 N.pl3   1  UNL1       -0.2740
      9 C          63.4724   91.0184   11.9356 C.3     1  UNL1        0.1079
     10 C          62.6690   89.9511   11.2533 C.3     1  UNL1        0.1498
     11 C          61.7399   89.9923   10.0763 C.2     1  UNL1        0.2919
     12 O          61.4871   91.2887    9.3653 O.2     1  UNL1       -0.2563
     13 H          60.0304   86.2125    9.0829 H       1  UNL1        0.3058
     14 H          62.4115   86.5487   11.9650 H       1  UNL1        0.2454
     15 C          65.1485   91.0825   14.0169 C.ar    1  UNL1        0.2204
     16 N          66.5933   91.2642   13.6569 N.ar    1  UNL1       -0.2097
     17 C          67.5200   91.9652   14.6055 C.ar    1  UNL1        0.1330
     18 C          67.0021   92.4844   15.9139 C.ar    1  UNL1        0.1784
     19 F          67.9289   93.1854   16.8624 F       1  UNL1       -0.2009
     20 C          65.5573   92.3027   16.2739 C.ar    1  UNL1        0.1330
     21 N          64.6306   91.6017   15.3253 N.ar    1  UNL1       -0.2097
     22 C          63.2701   87.4387   12.7704 C.ar    1  UNL1        0.0397
     23 C          62.9114   86.0226   12.4299 C.ar    1  UNL1        0.0057
     24 C          63.4579   85.1340   13.5078 C.ar    1  UNL1        0.0068
     25 C          64.1542   86.0009   14.5145 C.ar    1  UNL1        0.0352
     26 S          64.0381   87.4254   14.0588 S.2     1  UNL1       -0.0878
     27 C          63.3303   83.6407   13.5683 C.ar    1  UNL1        0.0012
     28 C          64.5355   82.7754   13.3473 C.ar    1  UNL1        0.0009
     29 C          64.4080   81.2821   13.4079 C.ar    1  UNL1        0.0121
     30 C          63.0752   80.6540   13.6893 C.ar    1  UNL1        0.0673
     31 CL         62.9477   79.1606   13.7498 Cl      1  UNL1       -0.0815
     32 C          61.8701   81.5192   13.9102 C.ar    1  UNL1        0.0790
     33 C          61.9976   83.0126   13.8497 C.ar    1  UNL1        0.0111
     34 C          60.5372   80.8911   14.1917 C.1     1  UNL1        0.1013
     35 N          59.2045   80.2631   14.4732 N.1     1  UNL1       -0.1908
@<TRIPOS>BOND
     1     1     2    1
     2     2     3    1
     3     3     4    2
     4     3     5    1
     5     5     6    1
     6     6    22    1
     7    22    23   ar
     8    23    24   ar
     9    24    27    1
    10    27    28   ar
    11    28    29   ar
    12    29    30   ar
    13    30    31    1
    14    30    32   ar
    15    32    34    1
    16    34    35    3
    17    32    33   ar
    18    24    25   ar
    19    25    26   ar
    20     6     7    1
    21     7     8    1
    22     8    15    1
    23    15    16   ar
    24    16    17   ar
    25    17    18   ar
    26    18    19    1
    27    18    20   ar
    28    20    21   ar
    29     8     9    1
    30    10     9    1
    31    10    11    1
    32    11    12    2
    33    11     2   am
    34    10     6    1
    35    26    22   ar
    36    21    15   ar
    37    33    27   ar
    38     4    13    1
    39     5    14    1
@<TRIPOS>MOLECULE
*****
 35 39 0 0 0
SMALL
GASTEIGER

@<TRIPOS>ATOM
      1 C          59.4445   88.2337    7.6420 C.3     1  UNL1        0.2159
      2 N          60.3421   88.2361    8.8439 N.am    1  UNL1       -0.1449
      3 C          60.7410   86.9399    9.4846 C.2     1  UNL1        0.3728
      4 N          60.2423   85.6411    8.9235 N.2     1  UNL1       -0.1329
      5 N          61.6386   86.9422   10.6865 N.pl3   1  UNL1       -0.2247
      6 C          62.1372   88.2409   11.2475 C.3     1  UNL1        0.1559
      7 C          63.0271   88.5547   12.4135 C.3     1  UNL1        0.1327
      8 N          63.1782   90.0449   12.4934 N.pl3   1  UNL1       -0.2740
      9 C          62.3817   90.6521   11.3767 C.3     1  UNL1        0.1079
     10 C          61.7383   89.5371   10.6067 C.3     1  UNL1        0.1498
     11 C          60.8407   89.5347    9.4049 C.2     1  UNL1        0.2919
     12 O          60.4418   90.8310    8.7641 O.2     1  UNL1       -0.2563
     13 H          59.6532   85.6395    8.1347 H       1  UNL1        0.3058
     14 H          61.9004   86.0914   11.1070 H       1  UNL1        0.2454
     15 C          63.9843   90.7961   13.5112 C.ar    1  UNL1        0.2204
     16 N          63.5590   90.8012   14.9496 N.ar    1  UNL1       -0.2097
     17 C          64.3652   91.5524   15.9674 C.ar    1  UNL1        0.1330
     18 C          65.5966   92.2985   15.5467 C.ar    1  UNL1        0.1784
     19 F          66.4027   93.0497   16.5646 F       1  UNL1       -0.2009
     20 C          66.0219   92.2935   14.1083 C.ar    1  UNL1        0.1330
     21 N          65.2157   91.5422   13.0906 N.ar    1  UNL1       -0.2097
     22 C          62.6181   87.0302   11.9911 C.ar    1  UNL1        0.0397
     23 C          62.1479   85.6215   11.7804 C.ar    1  UNL1        0.0057
     24 C          62.8929   84.7364   12.7351 C.ar    1  UNL1        0.0068
     25 C          63.8237   85.5980   13.5359 C.ar    1  UNL1        0.0352
     26 S          63.6538   87.0157   13.0761 S.2     1  UNL1       -0.0878
     27 C          62.7350   83.2505   12.8660 C.ar    1  UNL1        0.0012
     28 C          62.4232   82.6442   14.2021 C.ar    1  UNL1        0.0009
     29 C          62.2653   81.1583   14.3330 C.ar    1  UNL1        0.0121
     30 C          62.4190   80.2786   13.1278 C.ar    1  UNL1        0.0673
     31 CL         62.2611   78.7927   13.2587 Cl      1  UNL1       -0.0815
     32 C          62.7308   80.8849   11.7917 C.ar    1  UNL1        0.0790
     33 C          62.8887   82.3708   11.6608 C.ar    1  UNL1        0.0111
     34 C          62.8845   80.0053   10.5864 C.1     1  UNL1        0.1013
     35 N          63.0384   79.1258    9.3811 N.1     1  UNL1       -0.1908
@<TRIPOS>BOND
     1     1     2    1
     2     2     3    1
     3     3     4    2
     4     3     5    1
     5     5     6    1
     6     6    22    1
     7    22    23   ar
     8    23    24   ar
     9    24    27    1
    10    27    28   ar
    11    28    29   ar
    12    29    30   ar
    13    30    31    1
    14    30    32   ar
    15    32    34    1
    16    34    35    3
    17    32    33   ar
    18    24    25   ar
    19    25    26   ar
    20     6     7    1
    21     7     8    1
    22     8    15    1
    23    15    16   ar
    24    16    17   ar
    25    17    18   ar
    26    18    19    1
    27    18    20   ar
    28    20    21   ar
    29     8     9    1
    30    10     9    1
    31    10    11    1
    32    11    12    2
    33    11     2   am
    34    10     6    1
    35    26    22   ar
    36    21    15   ar
    37    33    27   ar
    38     4    13    1
    39     5    14    1
@<TRIPOS>MOLECULE
*****
 35 39 0 0 0
SMALL
GASTEIGER

@<TRIPOS>ATOM
      1 C          64.1201   80.8261   13.8871 C.3     1  UNL1        0.2159
      2 N          63.7838   82.2475   13.5456 N.am    1  UNL1       -0.1449
      3 C          64.2039   83.3585   14.4616 C.2     1  UNL1        0.3728
      4 N          64.9603   83.0482   15.7192 N.2     1  UNL1       -0.1329
      5 N          63.8676   84.7799   14.1200 N.pl3   1  UNL1       -0.2247
      6 C          63.1112   85.0902   12.8624 C.3     1  UNL1        0.1559
      7 C          62.6411   86.3844   12.2674 C.3     1  UNL1        0.1327
      8 N          61.9304   86.0732   10.9837 N.pl3   1  UNL1       -0.2740
      9 C          61.9613   84.5867   10.7852 C.3     1  UNL1        0.1079
     10 C          62.6911   83.9792   11.9464 C.3     1  UNL1        0.1498
     11 C          63.0274   82.5578   12.2880 C.2     1  UNL1        0.2919
     12 O          62.6074   81.4468   11.3719 O.2     1  UNL1       -0.2563
     13 H          65.1811   82.1153   15.9434 H       1  UNL1        0.3058
     14 H          64.1433   85.5091   14.7213 H       1  UNL1        0.2454
     15 C          61.2995   87.0729   10.0604 C.ar    1  UNL1        0.2204
     16 N          60.4592   86.6050    8.9094 N.ar    1  UNL1       -0.2097
     17 C          59.8283   87.6048    7.9861 C.ar    1  UNL1        0.1330
     18 C          60.0378   89.0726    8.2138 C.ar    1  UNL1        0.1784
     19 F          59.4069   90.0723    7.2905 F       1  UNL1       -0.2009
     20 C          60.8781   89.5405    9.3648 C.ar    1  UNL1        0.1330
     21 N          61.5090   88.5407   10.2881 N.ar    1  UNL1       -0.2097
     22 C          63.4631   86.2996   13.6770 C.ar    1  UNL1        0.0397
     23 C          64.0114   87.5910   13.1463 C.ar    1  UNL1        0.0057
     24 C          64.2156   88.5195   14.3066 C.ar    1  UNL1        0.0068
     25 C          63.7935   87.8019   15.5544 C.ar    1  UNL1        0.0352
     26 S          63.3284   86.4299   15.1652 S.2     1  UNL1       -0.0878
     27 C          64.7483   89.9197   14.2322 C.ar    1  UNL1        0.0012
     28 C          65.1838   90.6240   15.4829 C.ar    1  UNL1        0.0009
     29 C          65.7166   92.0242   15.4086 C.ar    1  UNL1        0.0121
     30 C          65.8139   92.7202   14.0834 C.ar    1  UNL1        0.0673
     31 CL         66.3467   94.1204   14.0090 Cl      1  UNL1       -0.0815
     32 C          65.3784   92.0159   12.8327 C.ar    1  UNL1        0.0790
     33 C          64.8457   90.6157   12.9071 C.ar    1  UNL1        0.0111
     34 C          65.4757   92.7119   11.5074 C.1     1  UNL1        0.1013
     35 N          65.5730   93.4079   10.1822 N.1     1  UNL1       -0.1908
@<TRIPOS>BOND
     1     1     2    1
     2     2     3    1
     3     3     4    2
     4     3     5    1
     5     5     6    1
     6     6    22    1
     7    22    23   ar
     8    23    24   ar
     9    24    27    1
    10    27    28   ar
    11    28    29   ar
    12    29    30   ar
    13    30    31    1
    14    30    32   ar
    15    32    34    1
    16    34    35    3
    17    32    33   ar
    18    24    25   ar
    19    25    26   ar
    20     6     7    1
    21     7     8    1
    22     8    15    1
    23    15    16   ar
    24    16    17   ar
    25    17    18   ar
    26    18    19    1
    27    18    20   ar
    28    20    21   ar
    29     8     9    1
    30    10     9    1
    31    10    11    1
    32    11    12    2
    33    11     2   am
    34    10     6    1
    35    26    22   ar
    36    21    15   ar
    37    33    27   ar
    38     4    13    1
    39     5    14    1
@<TRIPOS>MOLECULE
*****
 35 39 0 0 0
SMALL
GASTEIGER

@<TRIPOS>ATOM
      1 C          62.7285   78.0494   12.1002 C.3     1  UNL1        0.2159
      2 N          62.7719   79.5442   12.2176 N.am    1  UNL1       -0.1449
      3 C          62.7302   80.3950   10.9830 C.2     1  UNL1        0.3728
      4 N          62.6451   79.7511    9.6309 N.2     1  UNL1       -0.1329
      5 N          62.7737   81.8899   11.1005 N.pl3   1  UNL1       -0.2247
      6 C          62.8589   82.5337   12.4525 C.3     1  UNL1        0.1559
      7 C          62.9166   83.9710   12.8779 C.3     1  UNL1        0.1327
      8 N          62.9940   84.0084   14.3754 N.pl3   1  UNL1       -0.2740
      9 C          62.9841   82.5943   14.8756 C.3     1  UNL1        0.1079
     10 C          62.9006   81.6829   13.6872 C.3     1  UNL1        0.1498
     11 C          62.8571   80.1881   13.5697 C.2     1  UNL1        0.2919
     12 O          62.8988   79.3372   14.8043 O.2     1  UNL1       -0.2563
     13 H          62.6165   78.7701    9.5538 H       1  UNL1        0.3058
     14 H          62.7463   82.4483   10.2901 H       1  UNL1        0.2454
     15 C          63.0683   85.2431   15.2239 C.ar    1  UNL1        0.2204
     16 N          63.8445   86.4350   14.7474 N.ar    1  UNL1       -0.2097
     17 C          63.9187   87.6697   15.5960 C.ar    1  UNL1        0.1330
     18 C          63.2168   87.7126   16.9209 C.ar    1  UNL1        0.1784
     19 F          63.2911   88.9474   17.7694 F       1  UNL1       -0.2009
     20 C          62.4406   86.5208   17.3974 C.ar    1  UNL1        0.1330
     21 N          62.3664   85.2861   16.5488 N.ar    1  UNL1       -0.2097
     22 C          62.8252   83.5090   11.3133 C.ar    1  UNL1        0.0397
     23 C          61.7568   84.5305   11.0585 C.ar    1  UNL1        0.0057
     24 C          62.1253   85.2868    9.8166 C.ar    1  UNL1        0.0068
     25 C          63.4214   84.7326    9.3039 C.ar    1  UNL1        0.0352
     26 S          63.8540   83.6338   10.2289 S.2     1  UNL1       -0.0878
     27 C          61.3362   86.4015    9.1963 C.ar    1  UNL1        0.0012
     28 C          60.8276   86.2690    7.7915 C.ar    1  UNL1        0.0009
     29 C          60.0386   87.3837    7.1712 C.ar    1  UNL1        0.0121
     30 C          59.7580   88.6310    7.9558 C.ar    1  UNL1        0.0673
     31 CL         58.9689   89.7457    7.3355 Cl      1  UNL1       -0.0815
     32 C          60.2666   88.7634    9.3607 C.ar    1  UNL1        0.0790
     33 C          61.0557   87.6487    9.9810 C.ar    1  UNL1        0.0111
     34 C          59.9861   90.0107   10.1454 C.1     1  UNL1        0.1013
     35 N          59.7055   91.2579   10.9302 N.1     1  UNL1       -0.1908
@<TRIPOS>BOND
     1     1     2    1
     2     2     3    1
     3     3     4    2
     4     3     5    1
     5     5     6    1
     6     6    22    1
     7    22    23   ar
     8    23    24   ar
     9    24    27    1
    10    27    28   ar
    11    28    29   ar
    12    29    30   ar
    13    30    31    1
    14    30    32   ar
    15    32    34    1
    16    34    35    3
    17    32    33   ar
    18    24    25   ar
    19    25    26   ar
    20     6     7    1
    21     7     8    1
    22     8    15    1
    23    15    16   ar
    24    16    17   ar
    25    17    18   ar
    26    18    19    1
    27    18    20   ar
    28    20    21   ar
    29     8     9    1
    30    10     9    1
    31    10    11    1
    32    11    12    2
    33    11     2   am
    34    10     6    1
    35    26    22   ar
    36    21    15   ar
    37    33    27   ar
    38     4    13    1
    39     5    14    1
