@<TRIPOS>MOLECULE
*****
 38 41 0 0 0
SMALL
GASTEIGER

@<TRIPOS>ATOM
      1 N          61.7307   88.8396   11.1265 N.am    1  UNL1       -0.2770
      2 C          61.8686   88.2172    9.7686 C.2     1  UNL1        0.2294
      3 O          62.5874   87.8726    9.7568 O.2     1  UNL1       -0.2747
      4 C          60.7534   88.3358    8.7725 C.3     1  UNL1        0.1208
      5 C          60.3381   89.6864    8.2688 C.3     1  UNL1        0.0804
      6 N          59.2229   89.8049    7.2727 N.3     1  UNL1       -0.2969
      7 C          58.5230   88.5729    6.7803 C.3     1  UNL1        0.0714
      8 C          58.9383   87.2225    7.2839 C.3     1  UNL1        0.0487
      9 C          60.0535   87.1039    8.2800 C.3     1  UNL1        0.1177
     10 O          59.6981   85.6562    8.1134 O.3     1  UNL1       -0.3821
     11 H          59.6093   90.2719    6.4523 H       1  UNL1        0.1233
     12 H          58.9692   85.5732    7.4787 H       1  UNL1        0.2107
     13 C          61.0453   86.4826    9.2183 C.ar    1  UNL1        0.0023
     14 C          62.3612   85.9856    8.6972 C.ar    1  UNL1       -0.0020
     15 C          63.3529   85.3642    9.6356 C.ar    1  UNL1       -0.0002
     16 C          63.0288   85.2399   11.0948 C.ar    1  UNL1       -0.0000
     17 C          61.7130   85.7369   11.6159 C.ar    1  UNL1       -0.0002
     18 C          60.7212   86.3583   10.6775 C.ar    1  UNL1       -0.0020
     19 C          60.4776   89.5804   11.4882 C.3     1  UNL1        0.0758
     20 C          59.1388   89.6162   12.1636 C.3     1  UNL1        0.0215
     21 C          59.6460   90.8278   11.4393 C.3     1  UNL1        0.0215
     22 C          62.8459   88.7210   12.1226 C.3     1  UNL1        0.1201
     23 C          64.8807   92.1004   11.6868 C.ar    1  UNL1       -0.0194
     24 C          64.0304   90.9067   11.3675 C.ar    1  UNL1       -0.0067
     25 C          63.6963   89.9147   12.4420 C.ar    1  UNL1        0.0004
     26 C          64.2127   90.1165   13.8358 C.ar    1  UNL1        0.0343
     27 C          65.0630   91.3101   14.1551 C.ar    1  UNL1        0.1381
     28 C          65.3970   92.3021   13.0806 C.ar    1  UNL1        0.0326
     29 C          65.2148   93.0923   10.6124 C.3     1  UNL1        0.0290
     30 C          66.2958   94.1072   10.8384 C.3     1  UNL1        0.0367
     31 C          67.2033   94.5002    9.7106 C.3     1  UNL1        0.1426
     32 C          68.8169   92.5117    9.2722 C.3     1  UNL1        0.1741
     33 O          68.5966   93.9486    9.6419 O.3     1  UNL1       -0.3511
     34 O          65.5794   91.5119   15.5489 O.3     1  UNL1       -0.4728
     35 C          66.6191   92.5587   15.8194 C.3     1  UNL1        0.2373
     36 C          68.0744   92.2253   15.6748 C.3     1  UNL1        0.1894
     37 O          68.8112   92.6085   14.4257 O.3     1  UNL1       -0.3471
     38 C          68.6729   91.7735   13.1874 C.3     1  UNL1        0.1743
@<TRIPOS>BOND
     1    32    33    1
     2    33    31    1
     3    31    30    1
     4    30    29    1
     5    29    23    1
     6    23    24   ar
     7    24    25   ar
     8    25    22    1
     9    22     1    1
    10     1     2   am
    11     2     3    2
    12     4     2    1
    13     4     5    1
    14     5     6    1
    15     6     7    1
    16     7     8    1
    17     8     9    1
    18     9    10    1
    19     9    13    1
    20    13    14   ar
    21    14    15   ar
    22    15    16   ar
    23    16    17   ar
    24    17    18   ar
    25     1    19    1
    26    19    20    1
    27    20    21    1
    28    25    26   ar
    29    26    27   ar
    30    27    34    1
    31    34    35    1
    32    35    36    1
    33    36    37    1
    34    37    38    1
    35    27    28   ar
    36    28    23   ar
    37     9     4    1
    38    18    13   ar
    39    21    19    1
    40     6    11    1
    41    10    12    1
@<TRIPOS>MOLECULE
*****
 38 41 0 0 0
SMALL
GASTEIGER

@<TRIPOS>ATOM
      1 N          61.7234   88.8493   11.1345 N.am    1  UNL1       -0.2770
      2 C          61.8663   88.2359    9.7730 C.2     1  UNL1        0.2294
      3 O          62.5899   87.9019    9.7574 O.2     1  UNL1       -0.2747
      4 C          60.7464   88.3432    8.7809 C.3     1  UNL1        0.1208
      5 C          60.3215   89.6888    8.2720 C.3     1  UNL1        0.0804
      6 N          59.2016   89.7961    7.2799 N.3     1  UNL1       -0.2969
      7 C          58.5066   88.5577    6.7966 C.3     1  UNL1        0.0714
      8 C          58.9315   87.2122    7.3054 C.3     1  UNL1        0.0487
      9 C          60.0514   87.1049    8.2976 C.3     1  UNL1        0.1177
     10 O          59.7033   85.6544    8.1398 O.3     1  UNL1       -0.3821
     11 H          59.5821   90.2610    6.4556 H       1  UNL1        0.1233
     12 H          58.9724   85.5641    7.5085 H       1  UNL1        0.2107
     13 C          61.0503   86.4939    9.2349 C.ar    1  UNL1        0.0023
     14 C          62.3672   86.0022    8.7112 C.ar    1  UNL1       -0.0020
     15 C          63.3661   85.3912    9.6486 C.ar    1  UNL1       -0.0002
     16 C          63.0483   85.2719   11.1097 C.ar    1  UNL1       -0.0000
     17 C          61.7316   85.7635   11.6334 C.ar    1  UNL1       -0.0002
     18 C          60.7326   86.3746   10.6960 C.ar    1  UNL1       -0.0020
     19 C          60.4608   89.5699   11.5037 C.3     1  UNL1        0.0758
     20 C          59.5835   90.7832   11.4129 C.3     1  UNL1        0.0215
     21 C          59.1511   89.6048   12.2341 C.3     1  UNL1        0.0215
     22 C          62.8433   88.7420   12.1266 C.3     1  UNL1        0.1201
     23 C          65.1089   91.3315   14.1044 C.ar    1  UNL1       -0.0194
     24 C          64.2553   90.1351   13.8046 C.ar    1  UNL1       -0.0067
     25 C          63.6969   89.9385   12.4264 C.ar    1  UNL1        0.0004
     26 C          63.9921   90.9383   11.3479 C.ar    1  UNL1        0.0343
     27 C          64.8457   92.1348   11.6477 C.ar    1  UNL1        0.1381
     28 C          65.4041   92.3313   13.0259 C.ar    1  UNL1        0.0326
     29 C          65.6673   91.5281   15.4826 C.3     1  UNL1        0.0290
     30 C          66.6915   92.5953   15.7318 C.3     1  UNL1        0.0367
     31 C          68.1511   92.2833   15.5832 C.3     1  UNL1        0.1426
     32 C          68.7345   91.7202   13.1149 C.3     1  UNL1        0.1741
     33 O          68.8641   92.6209   14.3073 O.3     1  UNL1       -0.3511
     34 O          65.1410   93.1347   10.5692 O.3     1  UNL1       -0.4728
     35 C          66.1177   94.2445   10.8224 C.3     1  UNL1        0.2373
     36 C          67.1487   94.5869    9.7880 C.3     1  UNL1        0.1894
     37 O          68.4475   93.8377    9.7469 O.3     1  UNL1       -0.3471
     38 C          68.4628   92.3827    9.3826 C.3     1  UNL1        0.1743
@<TRIPOS>BOND
     1    32    33    1
     2    33    31    1
     3    31    30    1
     4    30    29    1
     5    29    23    1
     6    23    24   ar
     7    24    25   ar
     8    25    22    1
     9    22     1    1
    10     1     2   am
    11     2     3    2
    12     4     2    1
    13     4     5    1
    14     5     6    1
    15     6     7    1
    16     7     8    1
    17     8     9    1
    18     9    10    1
    19     9    13    1
    20    13    14   ar
    21    14    15   ar
    22    15    16   ar
    23    16    17   ar
    24    17    18   ar
    25     1    19    1
    26    19    20    1
    27    20    21    1
    28    25    26   ar
    29    26    27   ar
    30    27    34    1
    31    34    35    1
    32    35    36    1
    33    36    37    1
    34    37    38    1
    35    27    28   ar
    36    28    23   ar
    37     9     4    1
    38    18    13   ar
    39    21    19    1
    40     6    11    1
    41    10    12    1
@<TRIPOS>MOLECULE
*****
 38 41 0 0 0
SMALL
GASTEIGER

@<TRIPOS>ATOM
      1 N          62.0927   88.4104   11.0574 N.am    1  UNL1       -0.2770
      2 C          62.0794   87.8694    9.6584 C.2     1  UNL1        0.2294
      3 O          62.7543   87.4531    9.5774 O.2     1  UNL1       -0.2747
      4 C          60.9251   88.1703    8.7489 C.3     1  UNL1        0.1208
      5 C          60.5891   89.5921    8.4088 C.3     1  UNL1        0.0804
      6 N          59.4349   89.8930    7.4993 N.3     1  UNL1       -0.2969
      7 C          58.6167   88.7721    6.9298 C.3     1  UNL1        0.0714
      8 C          58.9528   87.3504    7.2698 C.3     1  UNL1        0.0487
      9 C          60.1070   87.0495    8.1794 C.3     1  UNL1        0.1177
     10 O          59.6325   85.6561    7.8909 O.3     1  UNL1       -0.3821
     11 H          59.8119   90.4141    6.7076 H       1  UNL1        0.1233
     12 H          58.8666   85.6918    7.2967 H       1  UNL1        0.2107
     13 C          61.0964   86.2647    8.9887 C.ar    1  UNL1        0.0023
     14 C          60.8494   86.0256   10.4488 C.ar    1  UNL1       -0.0020
     15 C          61.8389   85.2407   11.2581 C.ar    1  UNL1       -0.0002
     16 C          63.0753   84.6950   10.6074 C.ar    1  UNL1       -0.0000
     17 C          63.3223   84.9340    9.1474 C.ar    1  UNL1       -0.0002
     18 C          62.3328   85.7189    8.3380 C.ar    1  UNL1       -0.0020
     19 C          60.9518   89.2524   11.5468 C.3     1  UNL1        0.0758
     20 C          60.2932   90.5927   11.6870 C.3     1  UNL1        0.0215
     21 C          59.6344   89.3703   12.2543 C.3     1  UNL1        0.0215
     22 C          63.2469   88.1095   11.9669 C.3     1  UNL1        0.1201
     23 C          63.4876   89.5284   15.6654 C.ar    1  UNL1       -0.0194
     24 C          63.1823   88.6165   14.5143 C.ar    1  UNL1       -0.0067
     25 C          63.5522   89.0215   13.1181 C.ar    1  UNL1        0.0004
     26 C          64.2273   90.3384   12.8731 C.ar    1  UNL1        0.0343
     27 C          64.5325   91.2503   14.0243 C.ar    1  UNL1        0.1381
     28 C          64.1627   90.8453   15.4204 C.ar    1  UNL1        0.0326
     29 C          63.1177   89.1235   17.0616 C.3     1  UNL1        0.0290
     30 C          63.1403   87.6758   17.4534 C.3     1  UNL1        0.0367
     31 C          61.9233   86.8237   17.2467 C.3     1  UNL1        0.1426
     32 C          63.1964   85.0579   15.8285 C.3     1  UNL1        0.1741
     33 O          62.0691   85.4154   16.7512 O.3     1  UNL1       -0.3511
     34 O          65.2077   92.5672   13.7794 O.3     1  UNL1       -0.4728
     35 C          66.5107   92.6156   13.0380 C.3     1  UNL1        0.2373
     36 C          67.7432   92.0159   13.6475 C.3     1  UNL1        0.1894
     37 O          68.6583   92.8655   14.4787 O.3     1  UNL1       -0.3471
     38 C          68.1546   93.4941   15.7441 C.3     1  UNL1        0.1743
@<TRIPOS>BOND
     1    32    33    1
     2    33    31    1
     3    31    30    1
     4    30    29    1
     5    29    23    1
     6    23    24   ar
     7    24    25   ar
     8    25    22    1
     9    22     1    1
    10     1     2   am
    11     2     3    2
    12     4     2    1
    13     4     5    1
    14     5     6    1
    15     6     7    1
    16     7     8    1
    17     8     9    1
    18     9    10    1
    19     9    13    1
    20    13    14   ar
    21    14    15   ar
    22    15    16   ar
    23    16    17   ar
    24    17    18   ar
    25     1    19    1
    26    19    20    1
    27    20    21    1
    28    25    26   ar
    29    26    27   ar
    30    27    34    1
    31    34    35    1
    32    35    36    1
    33    36    37    1
    34    37    38    1
    35    27    28   ar
    36    28    23   ar
    37     9     4    1
    38    18    13   ar
    39    21    19    1
    40     6    11    1
    41    10    12    1
@<TRIPOS>MOLECULE
*****
 38 41 0 0 0
SMALL
GASTEIGER

@<TRIPOS>ATOM
      1 N          63.4620   86.0478   13.0150 N.am    1  UNL1       -0.2770
      2 C          64.0763   84.7575   13.4711 C.2     1  UNL1        0.2294
      3 O          64.5359   84.9417   14.0958 O.2     1  UNL1       -0.2747
      4 C          63.7567   83.4798   12.7532 C.3     1  UNL1        0.1208
      5 C          64.1980   83.2871   11.3326 C.3     1  UNL1        0.0804
      6 N          63.8784   82.0094   10.6147 N.3     1  UNL1       -0.2969
      7 C          63.1176   80.9244   11.3175 C.3     1  UNL1        0.0714
      8 C          62.6764   81.1171   12.7381 C.3     1  UNL1        0.0487
      9 C          62.9959   82.3948   13.4560 C.3     1  UNL1        0.1177
     10 O          62.2569   81.6655   14.5386 O.3     1  UNL1       -0.3821
     11 H          64.7684   81.6043   10.3243 H       1  UNL1        0.1233
     12 H          61.9793   80.7957   14.2112 H       1  UNL1        0.2107
     13 C          63.0588   83.4192   14.5498 C.ar    1  UNL1        0.0023
     14 C          64.3284   83.6115   15.3252 C.ar    1  UNL1       -0.0020
     15 C          64.3912   84.6360   16.4190 C.ar    1  UNL1       -0.0002
     16 C          63.1846   85.4682   16.7375 C.ar    1  UNL1       -0.0000
     17 C          61.9151   85.2760   15.9621 C.ar    1  UNL1       -0.0002
     18 C          61.8522   84.2515   14.8682 C.ar    1  UNL1       -0.0020
     19 C          62.5284   86.0604   11.8411 C.3     1  UNL1        0.0758
     20 C          62.2937   85.9189   10.3664 C.3     1  UNL1        0.0215
     21 C          61.1458   86.2236   11.2826 C.3     1  UNL1        0.0215
     22 C          63.7816   87.3256   13.7329 C.3     1  UNL1        0.1201
     23 C          62.6965   90.0553   11.0643 C.ar    1  UNL1       -0.0194
     24 C          62.8189   88.7425   11.7795 C.ar    1  UNL1       -0.0067
     25 C          63.6592   88.6385   13.0177 C.ar    1  UNL1        0.0004
     26 C          64.3771   89.8472   13.5407 C.ar    1  UNL1        0.0343
     27 C          64.2547   91.1600   12.8255 C.ar    1  UNL1        0.1381
     28 C          63.4144   91.2640   11.5873 C.ar    1  UNL1        0.0326
     29 C          61.8563   90.1594    9.8261 C.3     1  UNL1        0.0290
     30 C          60.5276   89.4664    9.7610 C.3     1  UNL1        0.0367
     31 C          60.0941   88.7933    8.4924 C.3     1  UNL1        0.1426
     32 C          59.6553   86.3469    7.7357 C.3     1  UNL1        0.1741
     33 O          59.2659   87.5440    8.5514 O.3     1  UNL1       -0.3511
     34 O          64.9726   92.3688   13.3485 O.3     1  UNL1       -0.4728
     35 C          66.3764   92.6573   12.9057 C.3     1  UNL1        0.2373
     36 C          67.5298   91.9680   13.5725 C.3     1  UNL1        0.1894
     37 O          68.5122   92.7621   14.3813 O.3     1  UNL1       -0.3471
     38 C          68.0581   93.4833   15.6156 C.3     1  UNL1        0.1743
@<TRIPOS>BOND
     1    32    33    1
     2    33    31    1
     3    31    30    1
     4    30    29    1
     5    29    23    1
     6    23    24   ar
     7    24    25   ar
     8    25    22    1
     9    22     1    1
    10     1     2   am
    11     2     3    2
    12     4     2    1
    13     4     5    1
    14     5     6    1
    15     6     7    1
    16     7     8    1
    17     8     9    1
    18     9    10    1
    19     9    13    1
    20    13    14   ar
    21    14    15   ar
    22    15    16   ar
    23    16    17   ar
    24    17    18   ar
    25     1    19    1
    26    19    20    1
    27    20    21    1
    28    25    26   ar
    29    26    27   ar
    30    27    34    1
    31    34    35    1
    32    35    36    1
    33    36    37    1
    34    37    38    1
    35    27    28   ar
    36    28    23   ar
    37     9     4    1
    38    18    13   ar
    39    21    19    1
    40     6    11    1
    41    10    12    1
@<TRIPOS>MOLECULE
*****
 38 41 0 0 0
SMALL
GASTEIGER

@<TRIPOS>ATOM
      1 N          63.4967   86.0259   13.0018 N.am    1  UNL1       -0.2770
      2 C          64.0757   84.7284   13.4826 C.2     1  UNL1        0.2294
      3 O          64.5404   84.9120   14.1038 O.2     1  UNL1       -0.2747
      4 C          63.7212   83.4463   12.7894 C.3     1  UNL1        0.1208
      5 C          64.1392   83.2228   11.3662 C.3     1  UNL1        0.0804
      6 N          63.7847   81.9407   10.6729 N.3     1  UNL1       -0.2969
      7 C          63.0123   80.8821   11.4029 C.3     1  UNL1        0.0714
      8 C          62.5943   81.1056   12.8260 C.3     1  UNL1        0.0487
      9 C          62.9488   82.3877   13.5193 C.3     1  UNL1        0.1177
     10 O          62.2104   81.6903   14.6230 O.3     1  UNL1       -0.3821
     11 H          64.6624   81.5135   10.3771 H       1  UNL1        0.1233
     12 H          61.9112   80.8212   14.3131 H       1  UNL1        0.2107
     13 C          63.0468   83.4276   14.5958 C.ar    1  UNL1        0.0023
     14 C          61.8597   84.2850   14.9208 C.ar    1  UNL1       -0.0020
     15 C          61.9578   85.3248   15.9974 C.ar    1  UNL1       -0.0002
     16 C          63.2430   85.5073   16.7490 C.ar    1  UNL1       -0.0000
     17 C          64.4301   84.6500   16.4241 C.ar    1  UNL1       -0.0002
     18 C          64.3320   83.6101   15.3474 C.ar    1  UNL1       -0.0020
     19 C          62.5632   86.0414   11.8277 C.3     1  UNL1        0.0758
     20 C          62.3235   85.8744   10.3565 C.3     1  UNL1        0.0215
     21 C          61.1862   86.2350   11.2655 C.3     1  UNL1        0.0215
     22 C          63.8511   87.3080   13.6950 C.3     1  UNL1        0.1201
     23 C          62.5946   90.0146   11.0786 C.ar    1  UNL1       -0.0194
     24 C          62.7756   88.7046   11.7863 C.ar    1  UNL1       -0.0067
     25 C          63.6701   88.6182   12.9873 C.ar    1  UNL1        0.0004
     26 C          64.3836   89.8419   13.4807 C.ar    1  UNL1        0.0343
     27 C          64.2025   91.1520   12.7730 C.ar    1  UNL1        0.1381
     28 C          63.3080   91.2384   11.5720 C.ar    1  UNL1        0.0326
     29 C          61.7001   90.1010    9.8776 C.3     1  UNL1        0.0290
     30 C          60.2114   90.0227   10.0440 C.3     1  UNL1        0.0367
     31 C          59.5771   90.4536   11.3332 C.3     1  UNL1        0.1426
     32 C          58.2955   88.8681   12.9438 C.3     1  UNL1        0.1741
     33 O          59.5722   89.5273   12.5131 O.3     1  UNL1       -0.3511
     34 O          64.9160   92.3759   13.2663 O.3     1  UNL1       -0.4728
     35 C          66.1180   92.8906   12.5314 C.3     1  UNL1        0.2373
     36 C          65.9420   93.7637   11.3244 C.3     1  UNL1        0.1894
     37 O          66.9190   94.8681   11.0487 O.3     1  UNL1       -0.3471
     38 C          66.4320   96.2779   10.8901 C.3     1  UNL1        0.1743
@<TRIPOS>BOND
     1    32    33    1
     2    33    31    1
     3    31    30    1
     4    30    29    1
     5    29    23    1
     6    23    24   ar
     7    24    25   ar
     8    25    22    1
     9    22     1    1
    10     1     2   am
    11     2     3    2
    12     4     2    1
    13     4     5    1
    14     5     6    1
    15     6     7    1
    16     7     8    1
    17     8     9    1
    18     9    10    1
    19     9    13    1
    20    13    14   ar
    21    14    15   ar
    22    15    16   ar
    23    16    17   ar
    24    17    18   ar
    25     1    19    1
    26    19    20    1
    27    20    21    1
    28    25    26   ar
    29    26    27   ar
    30    27    34    1
    31    34    35    1
    32    35    36    1
    33    36    37    1
    34    37    38    1
    35    27    28   ar
    36    28    23   ar
    37     9     4    1
    38    18    13   ar
    39    21    19    1
    40     6    11    1
    41    10    12    1
@<TRIPOS>MOLECULE
*****
 38 41 0 0 0
SMALL
GASTEIGER

@<TRIPOS>ATOM
      1 N          63.4499   85.9916   13.0581 N.am    1  UNL1       -0.2770
      2 C          64.1438   84.6840   13.3009 C.2     1  UNL1        0.2294
      3 O          64.5655   84.7802   13.9705 O.2     1  UNL1       -0.2747
      4 C          63.9480   83.5427   12.3474 C.3     1  UNL1        0.1208
      5 C          64.5608   83.5949   10.9792 C.3     1  UNL1        0.0804
      6 N          64.3650   82.4536   10.0258 N.3     1  UNL1       -0.2969
      7 C          63.5565   81.2601   10.4405 C.3     1  UNL1        0.0714
      8 C          62.9438   81.2079   11.8087 C.3     1  UNL1        0.0487
      9 C          63.1396   82.3493   12.7621 C.3     1  UNL1        0.1177
     10 O          62.2976   81.4428   13.6102 O.3     1  UNL1       -0.3821
     11 H          65.2942   82.1099    9.7831 H       1  UNL1        0.1233
     12 H          62.0854   80.6383   13.1116 H       1  UNL1        0.2107
     13 C          63.0429   83.1758   14.0101 C.ar    1  UNL1        0.0023
     14 C          64.1869   83.2064   14.9798 C.ar    1  UNL1       -0.0020
     15 C          64.0902   84.0330   16.2278 C.ar    1  UNL1       -0.0002
     16 C          62.8495   84.8288   16.5061 C.ar    1  UNL1       -0.0000
     17 C          61.7056   84.7982   15.5364 C.ar    1  UNL1       -0.0002
     18 C          61.8023   83.9716   14.2884 C.ar    1  UNL1       -0.0020
     19 C          62.5603   86.1578   11.8619 C.3     1  UNL1        0.0758
     20 C          61.1914   86.3400   11.2763 C.3     1  UNL1        0.0215
     21 C          62.3883   86.2634   10.3756 C.3     1  UNL1        0.0215
     22 C          63.6457   87.1329   14.0115 C.3     1  UNL1        0.1201
     23 C          64.8457   90.9021   13.6905 C.ar    1  UNL1       -0.0194
     24 C          64.6830   89.5063   14.2149 C.ar    1  UNL1       -0.0067
     25 C          63.8084   88.5288   13.4871 C.ar    1  UNL1        0.0004
     26 C          63.0967   88.9473   12.2348 C.ar    1  UNL1        0.0343
     27 C          63.2594   90.3431   11.7104 C.ar    1  UNL1        0.1381
     28 C          64.1340   91.3206   12.4383 C.ar    1  UNL1        0.0326
     29 C          65.7203   91.8795   14.4184 C.3     1  UNL1        0.0290
     30 C          67.2113   91.7190   14.3882 C.3     1  UNL1        0.0367
     31 C          67.9662   91.9624   13.1150 C.3     1  UNL1        0.1426
     32 C          67.3103   92.4206   10.6431 C.3     1  UNL1        0.1741
     33 O          67.3986   92.8762   12.0695 O.3     1  UNL1       -0.3511
     34 O          62.5477   90.7616   10.4580 O.3     1  UNL1       -0.4728
     35 C          61.6624   89.7884    9.7376 C.3     1  UNL1        0.2373
     36 C          60.1897   89.7617   10.0215 C.3     1  UNL1        0.1894
     37 O          59.6600   90.3580   11.2918 O.3     1  UNL1       -0.3471
     38 C          59.1535   89.4650   12.3854 C.3     1  UNL1        0.1743
@<TRIPOS>BOND
     1    32    33    1
     2    33    31    1
     3    31    30    1
     4    30    29    1
     5    29    23    1
     6    23    24   ar
     7    24    25   ar
     8    25    22    1
     9    22     1    1
    10     1     2   am
    11     2     3    2
    12     4     2    1
    13     4     5    1
    14     5     6    1
    15     6     7    1
    16     7     8    1
    17     8     9    1
    18     9    10    1
    19     9    13    1
    20    13    14   ar
    21    14    15   ar
    22    15    16   ar
    23    16    17   ar
    24    17    18   ar
    25     1    19    1
    26    19    20    1
    27    20    21    1
    28    25    26   ar
    29    26    27   ar
    30    27    34    1
    31    34    35    1
    32    35    36    1
    33    36    37    1
    34    37    38    1
    35    27    28   ar
    36    28    23   ar
    37     9     4    1
    38    18    13   ar
    39    21    19    1
    40     6    11    1
    41    10    12    1
@<TRIPOS>MOLECULE
*****
 38 41 0 0 0
SMALL
GASTEIGER

@<TRIPOS>ATOM
      1 N          63.3135   86.1467   12.8363 N.am    1  UNL1       -0.2770
      2 C          63.9305   84.8927   13.3813 C.2     1  UNL1        0.2294
      3 O          64.3502   85.1147   14.0217 O.2     1  UNL1       -0.2747
      4 C          63.6809   83.5781   12.7034 C.3     1  UNL1        0.1208
      5 C          64.0731   83.3879   11.2681 C.3     1  UNL1        0.0804
      6 N          63.8234   82.0733   10.5903 N.3     1  UNL1       -0.2969
      7 C          63.1815   80.9489   11.3477 C.3     1  UNL1        0.0714
      8 C          62.7893   81.1391   12.7830 C.3     1  UNL1        0.0487
      9 C          63.0390   82.4537   13.4608 C.3     1  UNL1        0.1177
     10 O          62.4077   81.6942   14.5898 O.3     1  UNL1       -0.3821
     11 H          64.7288   81.7319   10.2675 H       1  UNL1        0.1233
     12 H          62.1849   80.7983   14.2921 H       1  UNL1        0.2107
     13 C          63.0694   83.5045   14.5307 C.ar    1  UNL1        0.0023
     14 C          61.8281   84.2823   14.8536 C.ar    1  UNL1       -0.0020
     15 C          61.8586   85.3332   15.9236 C.ar    1  UNL1       -0.0002
     16 C          63.1303   85.6063   16.6706 C.ar    1  UNL1       -0.0000
     17 C          64.3716   84.8286   16.3478 C.ar    1  UNL1       -0.0002
     18 C          64.3411   83.7777   15.2778 C.ar    1  UNL1       -0.0020
     19 C          62.4468   86.0860   11.6136 C.3     1  UNL1        0.0758
     20 C          62.3076   85.9759   10.1241 C.3     1  UNL1        0.0215
     21 C          61.0848   86.0908   10.9852 C.3     1  UNL1        0.0215
     22 C          63.5631   87.4613   13.5141 C.3     1  UNL1        0.1201
     23 C          64.3117   91.1687   12.3121 C.ar    1  UNL1       -0.0194
     24 C          64.3753   89.8943   13.1006 C.ar    1  UNL1       -0.0067
     25 C          63.4995   88.7357   12.7256 C.ar    1  UNL1        0.0004
     26 C          62.5600   88.8516   11.5620 C.ar    1  UNL1        0.0343
     27 C          62.4963   90.1260   10.7735 C.ar    1  UNL1        0.1381
     28 C          63.3722   91.2846   11.1486 C.ar    1  UNL1        0.0326
     29 C          65.1876   92.3272   12.6872 C.3     1  UNL1        0.0290
     30 C          66.0039   92.2741   13.9444 C.3     1  UNL1        0.0367
     31 C          67.4645   91.9392   13.8766 C.3     1  UNL1        0.1426
     32 C          68.4049   93.4783   15.7467 C.3     1  UNL1        0.1741
     33 O          68.4843   92.9312   14.3523 O.3     1  UNL1       -0.3511
     34 O          61.5568   90.2420    9.6099 O.3     1  UNL1       -0.4728
     35 C          60.4891   89.2091    9.4023 C.3     1  UNL1        0.2373
     36 C          59.8934   89.0095    8.0401 C.3     1  UNL1        0.1894
     37 O          58.9038   87.9063    7.8086 O.3     1  UNL1       -0.3471
     38 C          59.3748   86.4861    7.7035 C.3     1  UNL1        0.1743
@<TRIPOS>BOND
     1    32    33    1
     2    33    31    1
     3    31    30    1
     4    30    29    1
     5    29    23    1
     6    23    24   ar
     7    24    25   ar
     8    25    22    1
     9    22     1    1
    10     1     2   am
    11     2     3    2
    12     4     2    1
    13     4     5    1
    14     5     6    1
    15     6     7    1
    16     7     8    1
    17     8     9    1
    18     9    10    1
    19     9    13    1
    20    13    14   ar
    21    14    15   ar
    22    15    16   ar
    23    16    17   ar
    24    17    18   ar
    25     1    19    1
    26    19    20    1
    27    20    21    1
    28    25    26   ar
    29    26    27   ar
    30    27    34    1
    31    34    35    1
    32    35    36    1
    33    36    37    1
    34    37    38    1
    35    27    28   ar
    36    28    23   ar
    37     9     4    1
    38    18    13   ar
    39    21    19    1
    40     6    11    1
    41    10    12    1
@<TRIPOS>MOLECULE
*****
 38 41 0 0 0
SMALL
GASTEIGER

@<TRIPOS>ATOM
      1 N          59.0118   95.3028   -3.4641 N.am    1  UNL1       -0.2770
      2 C          57.7094   94.6065   -3.2013 C.2     1  UNL1        0.2294
      3 O          57.5564   94.7119   -2.4261 O.2     1  UNL1       -0.2747
      4 C          56.9943   93.9067   -4.3188 C.3     1  UNL1        0.1208
      5 C          56.4941   94.6903   -5.4961 C.3     1  UNL1        0.0804
      6 N          55.7789   93.9905   -6.6136 N.3     1  UNL1       -0.2969
      7 C          55.5639   92.5071   -6.5538 C.3     1  UNL1        0.0714
      8 C          56.0641   91.7236   -5.3766 C.3     1  UNL1        0.0487
      9 C          56.7792   92.4234   -4.2591 C.3     1  UNL1        0.1177
     10 O          56.8172   91.0130   -3.7498 O.3     1  UNL1       -0.3821
     11 H          56.3089   94.1771   -7.4649 H       1  UNL1        0.1233
     12 H          56.3785   90.4274   -4.3866 H       1  UNL1        0.2107
     13 C          57.5076   92.6334   -2.9647 C.ar    1  UNL1        0.0023
     14 C          56.7489   93.0301   -1.7330 C.ar    1  UNL1       -0.0020
     15 C          57.4773   93.2400   -0.4387 C.ar    1  UNL1       -0.0002
     16 C          58.9643   93.0533   -0.3760 C.ar    1  UNL1       -0.0000
     17 C          59.7230   92.6566   -1.6076 C.ar    1  UNL1       -0.0002
     18 C          58.9946   92.4467   -2.9020 C.ar    1  UNL1       -0.0020
     19 C          59.5990   95.2992   -4.8443 C.3     1  UNL1        0.0758
     20 C          60.0221   94.5518   -6.0741 C.3     1  UNL1        0.0215
     21 C          60.1929   96.0404   -6.0053 C.3     1  UNL1        0.0215
     22 C          59.7270   96.0025   -2.3466 C.3     1  UNL1        0.1201
     23 C          63.4488   94.6606   -2.6596 C.ar    1  UNL1       -0.0194
     24 C          62.0536   95.0691   -3.0291 C.ar    1  UNL1       -0.0067
     25 C          61.1223   95.5940   -1.9770 C.ar    1  UNL1        0.0004
     26 C          61.5861   95.7104   -0.5553 C.ar    1  UNL1        0.0343
     27 C          62.9812   95.3019   -0.1858 C.ar    1  UNL1        0.1381
     28 C          63.9126   94.7770   -1.2379 C.ar    1  UNL1        0.0326
     29 C          64.3801   94.1357   -3.7118 C.3     1  UNL1        0.0290
     30 C          64.0995   94.4002   -5.1613 C.3     1  UNL1        0.0367
     31 C          63.5113   93.3205   -6.0206 C.3     1  UNL1        0.1426
     32 C          65.2590   91.5294   -6.7192 C.3     1  UNL1        0.1741
     33 O          64.0422   91.9202   -5.9338 O.3     1  UNL1       -0.3511
     34 O          63.4451   95.4183    1.2360 O.3     1  UNL1       -0.4728
     35 C          63.8893   94.1955    1.9825 C.3     1  UNL1        0.2373
     36 C          63.0040   92.9856    2.0344 C.3     1  UNL1        0.1894
     37 O          62.9760   92.1291    3.2654 O.3     1  UNL1       -0.3471
     38 C          63.5820   90.7573    3.2386 C.3     1  UNL1        0.1743
@<TRIPOS>BOND
     1    32    33    1
     2    33    31    1
     3    31    30    1
     4    30    29    1
     5    29    23    1
     6    23    24   ar
     7    24    25   ar
     8    25    22    1
     9    22     1    1
    10     1     2   am
    11     2     3    2
    12     4     2    1
    13     4     5    1
    14     5     6    1
    15     6     7    1
    16     7     8    1
    17     8     9    1
    18     9    10    1
    19     9    13    1
    20    13    14   ar
    21    14    15   ar
    22    15    16   ar
    23    16    17   ar
    24    17    18   ar
    25     1    19    1
    26    19    20    1
    27    20    21    1
    28    25    26   ar
    29    26    27   ar
    30    27    34    1
    31    34    35    1
    32    35    36    1
    33    36    37    1
    34    37    38    1
    35    27    28   ar
    36    28    23   ar
    37     9     4    1
    38    18    13   ar
    39    21    19    1
    40     6    11    1
    41    10    12    1
@<TRIPOS>MOLECULE
*****
 38 41 0 0 0
SMALL
GASTEIGER

@<TRIPOS>ATOM
      1 N          58.1997   95.4580   -3.2293 N.am    1  UNL1       -0.2770
      2 C          57.1151   94.4339   -3.0709 C.2     1  UNL1        0.2294
      3 O          56.9624   94.3947   -2.2894 O.2     1  UNL1       -0.2747
      4 C          56.5624   93.7341   -4.2770 C.3     1  UNL1        0.1208
      5 C          55.8506   94.5188   -5.3389 C.3     1  UNL1        0.0804
      6 N          55.2980   93.8190   -6.5451 N.3     1  UNL1       -0.2969
      7 C          55.4570   92.3344   -6.6893 C.3     1  UNL1        0.0714
      8 C          56.1687   91.5497   -5.6273 C.3     1  UNL1        0.0487
      9 C          56.7214   92.2495   -4.4212 C.3     1  UNL1        0.1177
     10 O          57.1205   90.8378   -4.1089 O.3     1  UNL1       -0.3821
     11 H          55.7407   94.2431   -7.3602 H       1  UNL1        0.1233
     12 H          56.8215   90.2520   -4.8219 H       1  UNL1        0.2107
     13 C          57.4127   92.4591   -3.1066 C.ar    1  UNL1        0.0023
     14 C          56.6107   92.5360   -1.8413 C.ar    1  UNL1       -0.0020
     15 C          57.3021   92.7455   -0.5268 C.ar    1  UNL1       -0.0002
     16 C          58.7954   92.8782   -0.4774 C.ar    1  UNL1       -0.0000
     17 C          59.5974   92.8013   -1.7426 C.ar    1  UNL1       -0.0002
     18 C          58.9060   92.5918   -3.0573 C.ar    1  UNL1       -0.0020
     19 C          58.7315   95.7822   -4.5939 C.3     1  UNL1        0.0758
     20 C          59.4679   95.3678   -5.8332 C.3     1  UNL1        0.0215
     21 C          58.9163   96.7579   -5.7180 C.3     1  UNL1        0.0215
     22 C          58.7524   96.1578   -2.0232 C.3     1  UNL1        0.1201
     23 C          62.1219   95.5656   -0.0118 C.ar    1  UNL1       -0.0194
     24 C          60.6591   95.6613   -0.3297 C.ar    1  UNL1       -0.0067
     25 C          60.2152   96.0622   -1.7053 C.ar    1  UNL1        0.0004
     26 C          61.2341   96.3675   -2.7629 C.ar    1  UNL1        0.0343
     27 C          62.6968   96.2719   -2.4450 C.ar    1  UNL1        0.1381
     28 C          63.1408   95.8709   -1.0695 C.ar    1  UNL1        0.0326
     29 C          62.5658   95.1647    1.3638 C.3     1  UNL1        0.0290
     30 C          63.0018   93.7544    1.6298 C.3     1  UNL1        0.0367
     31 C          62.0424   92.7749    2.2382 C.3     1  UNL1        0.1426
     32 C          63.4420   90.8176    3.2182 C.3     1  UNL1        0.1741
     33 O          62.4655   91.9399    3.4103 O.3     1  UNL1       -0.3511
     34 O          63.7158   96.5772   -3.5027 O.3     1  UNL1       -0.4728
     35 C          64.8810   95.6557   -3.7099 C.3     1  UNL1        0.2373
     36 C          64.8474   94.6405   -4.8137 C.3     1  UNL1        0.1894
     37 O          64.7252   93.1815   -4.4874 O.3     1  UNL1       -0.3471
     38 C          63.7268   92.7224   -3.4665 C.3     1  UNL1        0.1743
@<TRIPOS>BOND
     1    32    33    1
     2    33    31    1
     3    31    30    1
     4    30    29    1
     5    29    23    1
     6    23    24   ar
     7    24    25   ar
     8    25    22    1
     9    22     1    1
    10     1     2   am
    11     2     3    2
    12     4     2    1
    13     4     5    1
    14     5     6    1
    15     6     7    1
    16     7     8    1
    17     8     9    1
    18     9    10    1
    19     9    13    1
    20    13    14   ar
    21    14    15   ar
    22    15    16   ar
    23    16    17   ar
    24    17    18   ar
    25     1    19    1
    26    19    20    1
    27    20    21    1
    28    25    26   ar
    29    26    27   ar
    30    27    34    1
    31    34    35    1
    32    35    36    1
    33    36    37    1
    34    37    38    1
    35    27    28   ar
    36    28    23   ar
    37     9     4    1
    38    18    13   ar
    39    21    19    1
    40     6    11    1
    41    10    12    1
