@<TRIPOS>MOLECULE
*****
 23 25 0 0 0
SMALL
GASTEIGER

@<TRIPOS>ATOM
      1 O          65.3284   84.1130   13.7461 O.3     1  UNL1       -0.3786
      2 C          63.9778   84.6629   13.3948 C.3     1  UNL1        0.1541
      3 H          65.7908   84.7376   14.3266 H       1  UNL1        0.2108
      4 C          63.6970   83.4439   12.5668 C.ar    1  UNL1        0.0331
      5 C          64.2695   83.3274   11.1853 C.ar    1  UNL1        0.0026
      6 C          63.9886   82.1085   10.3575 C.ar    1  UNL1        0.0295
      7 C          63.1353   81.0061   10.9112 C.ar    1  UNL1        0.1424
      8 F          62.8545   79.7872   10.0832 F       1  UNL1       -0.2041
      9 C          62.5629   81.1226   12.2927 C.ar    1  UNL1        0.0590
     10 C          62.8437   82.3415   13.1205 C.ar    1  UNL1        0.1407
     11 F          62.2712   82.4581   14.5021 F       1  UNL1       -0.2043
     12 C          64.2587   85.8817   14.2227 C.3     1  UNL1        0.1622
     13 N          63.5329   86.0919   15.5184 N.ar    1  UNL1       -0.2272
     14 C          62.8125   85.0382   16.3064 C.ar    1  UNL1        0.1973
     15 N          62.2344   85.6877   17.5287 N.ar    1  UNL1       -0.2007
     16 C          62.5974   87.1427   17.4962 C.ar    1  UNL1        0.2210
     17 N          63.3999   87.3925   16.2537 N.ar    1  UNL1       -0.1451
     18 C          62.6272   85.2128   13.0434 C.3     1  UNL1        0.1622
     19 N          62.4928   86.2284   11.9478 N.ar    1  UNL1       -0.2272
     20 C          62.0823   85.9493   10.5323 C.ar    1  UNL1        0.1973
     21 N          62.0811   87.2498    9.7850 N.ar    1  UNL1       -0.2007
     22 C          62.4908   88.3327   10.7386 C.ar    1  UNL1        0.2210
     23 N          62.7453   87.7016   12.0753 N.ar    1  UNL1       -0.1451
@<TRIPOS>BOND
     1     1     2    1
     2     2    12    1
     3    12    13    1
     4    13    14   ar
     5    14    15   ar
     6    15    16   ar
     7    16    17   ar
     8     2    18    1
     9    18    19    1
    10    19    20   ar
    11    20    21   ar
    12    21    22   ar
    13    22    23   ar
    14     2     4    1
    15     4     5   ar
    16     5     6   ar
    17     6     7   ar
    18     7     8    1
    19     7     9   ar
    20     9    10   ar
    21    10    11    1
    22    17    13   ar
    23    23    19   ar
    24    10     4   ar
    25     1     3    1
@<TRIPOS>MOLECULE
*****
 23 25 0 0 0
SMALL
GASTEIGER

@<TRIPOS>ATOM
      1 O          60.5810   90.0839   12.1146 O.3     1  UNL1       -0.3786
      2 C          61.5257   89.1111   11.4735 C.3     1  UNL1        0.1541
      3 H          59.6696   89.7714   12.0023 H       1  UNL1        0.2108
      4 C          62.6865   89.9678   11.8844 C.ar    1  UNL1        0.0331
      5 C          63.2694   89.8316   13.2598 C.ar    1  UNL1        0.0026
      6 C          64.4301   90.6882   13.6706 C.ar    1  UNL1        0.0295
      7 C          65.0080   91.6811   12.7060 C.ar    1  UNL1        0.1424
      8 F          66.1688   92.5377   13.1169 F       1  UNL1       -0.2041
      9 C          64.4251   91.8172   11.3306 C.ar    1  UNL1        0.0590
     10 C          63.2644   90.9606   10.9198 C.ar    1  UNL1        0.1407
     11 F          62.6814   91.0968    9.5444 F       1  UNL1       -0.2043
     12 C          60.3650   88.2545   11.0627 C.3     1  UNL1        0.1622
     13 N          59.9496   88.1947    9.6226 N.ar    1  UNL1       -0.2272
     14 C          59.4603   86.9771    8.8959 C.ar    1  UNL1        0.1973
     15 N          59.1589   87.3719    7.4805 N.ar    1  UNL1       -0.2007
     16 C          59.4619   88.8335    7.3325 C.ar    1  UNL1        0.2210
     17 N          59.9505   89.3420    8.6563 N.ar    1  UNL1       -0.1451
     18 C          62.4705   88.1383   10.8325 C.3     1  UNL1        0.1622
     19 N          62.5952   86.7454   11.3751 N.ar    1  UNL1       -0.2272
     20 C          62.2981   85.4786   10.6289 C.ar    1  UNL1        0.1973
     21 N          62.5582   84.3252   11.5518 N.ar    1  UNL1       -0.2007
     22 C          63.0161   84.8791   12.8684 C.ar    1  UNL1        0.2210
     23 N          63.0390   86.3749   12.7593 N.ar    1  UNL1       -0.1451
@<TRIPOS>BOND
     1     1     2    1
     2     2    12    1
     3    12    13    1
     4    13    14   ar
     5    14    15   ar
     6    15    16   ar
     7    16    17   ar
     8     2    18    1
     9    18    19    1
    10    19    20   ar
    11    20    21   ar
    12    21    22   ar
    13    22    23   ar
    14     2     4    1
    15     4     5   ar
    16     5     6   ar
    17     6     7   ar
    18     7     8    1
    19     7     9   ar
    20     9    10   ar
    21    10    11    1
    22    17    13   ar
    23    23    19   ar
    24    10     4   ar
    25     1     3    1
@<TRIPOS>MOLECULE
*****
 23 25 0 0 0
SMALL
GASTEIGER

@<TRIPOS>ATOM
      1 O          65.0977   91.8331   10.7275 O.3     1  UNL1       -0.3786
      2 C          65.5480   92.7213   11.8492 C.3     1  UNL1        0.1541
      3 H          64.6314   91.0642   11.0912 H       1  UNL1        0.2108
      4 C          66.1537   93.6684   10.8561 C.ar    1  UNL1        0.0331
      5 C          65.5556   95.0293   10.6563 C.ar    1  UNL1        0.0026
      6 C          66.1613   95.9763    9.6632 C.ar    1  UNL1        0.0295
      7 C          67.3651   95.5623    8.8699 C.ar    1  UNL1        0.1424
      8 F          67.9708   96.5094    7.8767 F       1  UNL1       -0.2041
      9 C          67.9632   94.2013    9.0696 C.ar    1  UNL1        0.0590
     10 C          67.3575   93.2544   10.0627 C.ar    1  UNL1        0.1407
     11 F          67.9556   91.8933   10.2626 F       1  UNL1       -0.2043
     12 C          64.9423   91.7743   12.8423 C.3     1  UNL1        0.1622
     13 N          63.8249   90.8643   12.4258 N.ar    1  UNL1       -0.2272
     14 C          63.6323   89.4444   12.8694 C.ar    1  UNL1        0.1973
     15 N          62.3924   88.9169   12.2104 N.ar    1  UNL1       -0.2007
     16 C          61.8186   90.0109   11.3595 C.ar    1  UNL1        0.2210
     17 N          62.7040   91.2144   11.4926 N.ar    1  UNL1       -0.1451
     18 C          65.9982   93.6096   12.9709 C.3     1  UNL1        0.1622
     19 N          66.9824   93.1005   13.9820 N.ar    1  UNL1       -0.2272
     20 C          66.8107   93.1294   15.4718 C.ar    1  UNL1        0.1973
     21 N          68.0332   92.5199   16.0912 N.ar    1  UNL1       -0.2007
     22 C          68.9606   92.1142   14.9842 C.ar    1  UNL1        0.2210
     23 N          68.3112   92.4730   13.6806 N.ar    1  UNL1       -0.1451
@<TRIPOS>BOND
     1     1     2    1
     2     2    12    1
     3    12    13    1
     4    13    14   ar
     5    14    15   ar
     6    15    16   ar
     7    16    17   ar
     8     2    18    1
     9    18    19    1
    10    19    20   ar
    11    20    21   ar
    12    21    22   ar
    13    22    23   ar
    14     2     4    1
    15     4     5   ar
    16     5     6   ar
    17     6     7   ar
    18     7     8    1
    19     7     9   ar
    20     9    10   ar
    21    10    11    1
    22    17    13   ar
    23    23    19   ar
    24    10     4   ar
    25     1     3    1
@<TRIPOS>MOLECULE
*****
 23 25 0 0 0
SMALL
GASTEIGER

@<TRIPOS>ATOM
      1 O          63.1610   86.2826   12.9878 O.3     1  UNL1       -0.3786
      2 C          63.4233   84.8593   12.5936 C.3     1  UNL1        0.1541
      3 H          63.4598   86.4259   13.8995 H       1  UNL1        0.2108
      4 C          62.8406   85.1276   11.2376 C.ar    1  UNL1        0.0331
      5 C          61.6149   85.9817   11.1036 C.ar    1  UNL1        0.0026
      6 C          61.0323   86.2500    9.7477 C.ar    1  UNL1        0.0295
      7 C          61.6754   85.6640    8.5258 C.ar    1  UNL1        0.1424
      8 F          61.0927   85.9323    7.1698 F       1  UNL1       -0.2041
      9 C          62.9011   84.8099    8.6598 C.ar    1  UNL1        0.0590
     10 C          63.4837   84.5416   10.0157 C.ar    1  UNL1        0.1407
     11 F          64.7095   83.6874   10.1498 F       1  UNL1       -0.2043
     12 C          64.0059   84.5911   13.9495 C.3     1  UNL1        0.1622
     13 N          63.4134   85.2441   15.1630 N.ar    1  UNL1       -0.2272
     14 C          62.3038   84.6922   16.0081 C.ar    1  UNL1        0.1973
     15 N          62.0310   85.6706   17.1118 N.ar    1  UNL1       -0.2007
     16 C          62.9721   86.8273   16.9489 C.ar    1  UNL1        0.2210
     17 N          63.8264   86.5637   15.7445 N.ar    1  UNL1       -0.1451
     18 C          63.6855   83.4360   12.1994 C.3     1  UNL1        0.1622
     19 N          63.0832   82.3148   12.9931 N.ar    1  UNL1       -0.2272
     20 C          63.8113   81.1088   13.5084 C.ar    1  UNL1        0.1973
     21 N          62.8251   80.2514   14.2446 N.ar    1  UNL1       -0.2007
     22 C          61.4875   80.9274   14.1845 C.ar    1  UNL1        0.2210
     23 N          61.6468   82.2027   13.4110 N.ar    1  UNL1       -0.1451
@<TRIPOS>BOND
     1     1     2    1
     2     2    12    1
     3    12    13    1
     4    13    14   ar
     5    14    15   ar
     6    15    16   ar
     7    16    17   ar
     8     2    18    1
     9    18    19    1
    10    19    20   ar
    11    20    21   ar
    12    21    22   ar
    13    22    23   ar
    14     2     4    1
    15     4     5   ar
    16     5     6   ar
    17     6     7   ar
    18     7     8    1
    19     7     9   ar
    20     9    10   ar
    21    10    11    1
    22    17    13   ar
    23    23    19   ar
    24    10     4   ar
    25     1     3    1
@<TRIPOS>MOLECULE
*****
 23 25 0 0 0
SMALL
GASTEIGER

@<TRIPOS>ATOM
      1 O          63.2465   91.6122   13.4440 O.3     1  UNL1       -0.3786
      2 C          63.9807   90.3948   13.9222 C.3     1  UNL1        0.1541
      3 H          62.3964   91.3469   13.0594 H       1  UNL1        0.2108
      4 C          65.1154   91.2605   14.3839 C.ar    1  UNL1        0.0331
      5 C          66.2713   91.5336   13.4678 C.ar    1  UNL1        0.0026
      6 C          67.4059   92.3993   13.9296 C.ar    1  UNL1        0.0295
      7 C          67.3846   92.9918   15.3074 C.ar    1  UNL1        0.1424
      8 F          68.5193   93.8575   15.7692 F       1  UNL1       -0.2041
      9 C          66.2287   92.7187   16.2235 C.ar    1  UNL1        0.0590
     10 C          65.0941   91.8530   15.7618 C.ar    1  UNL1        0.1407
     11 F          63.9381   91.5799   16.6779 F       1  UNL1       -0.2043
     12 C          62.8461   89.5292   13.4605 C.3     1  UNL1        0.1622
     13 N          62.1761   89.8079   12.1477 N.ar    1  UNL1       -0.2272
     14 C          60.6972   89.8183   11.8971 C.ar    1  UNL1        0.1973
     15 N          60.4745   90.1420   10.4495 N.ar    1  UNL1       -0.2007
     16 C          61.8158   90.3318    9.8053 C.ar    1  UNL1        0.2210
     17 N          62.8674   90.1253   10.8549 N.ar    1  UNL1       -0.1451
     18 C          64.7149   89.1773   14.4004 C.3     1  UNL1        0.1622
     19 N          64.0506   88.2260   15.3510 N.ar    1  UNL1       -0.2272
     20 C          64.0983   86.7286   15.2770 C.ar    1  UNL1        0.1973
     21 N          63.2991   86.1822   16.4227 N.ar    1  UNL1       -0.2007
     22 C          62.7575   87.3419   17.2048 C.ar    1  UNL1        0.2210
     23 N          63.2219   88.6051   16.5425 N.ar    1  UNL1       -0.1451
@<TRIPOS>BOND
     1     1     2    1
     2     2    12    1
     3    12    13    1
     4    13    14   ar
     5    14    15   ar
     6    15    16   ar
     7    16    17   ar
     8     2    18    1
     9    18    19    1
    10    19    20   ar
    11    20    21   ar
    12    21    22   ar
    13    22    23   ar
    14     2     4    1
    15     4     5   ar
    16     5     6   ar
    17     6     7   ar
    18     7     8    1
    19     7     9   ar
    20     9    10   ar
    21    10    11    1
    22    17    13   ar
    23    23    19   ar
    24    10     4   ar
    25     1     3    1
@<TRIPOS>MOLECULE
*****
 23 25 0 0 0
SMALL
GASTEIGER

@<TRIPOS>ATOM
      1 O          64.5092   91.6802   13.4952 O.3     1  UNL1       -0.3786
      2 C          64.7967   92.0721   12.0762 C.3     1  UNL1        0.1541
      3 H          65.0414   92.2256   14.0954 H       1  UNL1        0.2108
      4 C          63.8222   91.0390   11.5934 C.ar    1  UNL1        0.0331
      5 C          63.0153   91.2902   10.3542 C.ar    1  UNL1        0.0026
      6 C          62.0408   90.2570    9.8715 C.ar    1  UNL1        0.0295
      7 C          61.8732   88.9727   10.6281 C.ar    1  UNL1        0.1424
      8 F          60.8987   87.9395   10.1454 F       1  UNL1       -0.2041
      9 C          62.6801   88.7215   11.8674 C.ar    1  UNL1        0.0590
     10 C          63.6546   89.7546   12.3500 C.ar    1  UNL1        0.1407
     11 F          64.4616   89.5035   13.5893 F       1  UNL1       -0.2043
     12 C          65.7712   93.1052   12.5589 C.3     1  UNL1        0.1622
     13 N          66.5633   92.8627   13.8094 N.ar    1  UNL1       -0.2272
     14 C          67.9140   92.2149   13.8859 C.ar    1  UNL1        0.1973
     15 N          68.3292   92.1772   15.3267 N.ar    1  UNL1       -0.2007
     16 C          67.2351   92.8018   16.1409 C.ar    1  UNL1        0.2210
     17 N          66.1437   93.2254   15.2031 N.ar    1  UNL1       -0.1451
     18 C          65.0842   92.4640   10.6571 C.3     1  UNL1        0.1622
     19 N          66.4792   92.8352   10.2495 N.ar    1  UNL1       -0.2272
     20 C          66.9651   94.2169    9.9258 C.ar    1  UNL1        0.1973
     21 N          68.4194   94.1254    9.5702 N.ar    1  UNL1       -0.2007
     22 C          68.8324   92.6872    9.6741 C.ar    1  UNL1        0.2210
     23 N          67.6334   91.8897   10.0939 N.ar    1  UNL1       -0.1451
@<TRIPOS>BOND
     1     1     2    1
     2     2    12    1
     3    12    13    1
     4    13    14   ar
     5    14    15   ar
     6    15    16   ar
     7    16    17   ar
     8     2    18    1
     9    18    19    1
    10    19    20   ar
    11    20    21   ar
    12    21    22   ar
    13    22    23   ar
    14     2     4    1
    15     4     5   ar
    16     5     6   ar
    17     6     7   ar
    18     7     8    1
    19     7     9   ar
    20     9    10   ar
    21    10    11    1
    22    17    13   ar
    23    23    19   ar
    24    10     4   ar
    25     1     3    1
@<TRIPOS>MOLECULE
*****
 23 25 0 0 0
SMALL
GASTEIGER

@<TRIPOS>ATOM
      1 O          61.9515   85.0606   10.9513 O.3     1  UNL1       -0.3786
      2 C          62.8883   84.9181   12.1140 C.3     1  UNL1        0.1541
      3 H          61.7633   86.0002   10.8010 H       1  UNL1        0.2108
      4 C          62.8659   83.4273   11.9494 C.ar    1  UNL1        0.0331
      5 C          62.2208   82.5669   12.9952 C.ar    1  UNL1        0.0026
      6 C          62.1984   81.0762   12.8305 C.ar    1  UNL1        0.0295
      7 C          62.8210   80.4459   11.6201 C.ar    1  UNL1        0.1424
      8 F          62.7986   78.9550   11.4555 F       1  UNL1       -0.2041
      9 C          63.4661   81.3062   10.5744 C.ar    1  UNL1        0.0590
     10 C          63.4885   82.7970   10.7390 C.ar    1  UNL1        0.1407
     11 F          64.1336   83.6575    9.6933 F       1  UNL1       -0.2043
     12 C          62.9108   86.4089   12.2786 C.3     1  UNL1        0.1622
     13 N          62.0363   87.2717   11.4179 N.ar    1  UNL1       -0.2272
     14 C          62.4971   88.1455   10.2891 C.ar    1  UNL1        0.1973
     15 N          61.2931   88.8261    9.7084 N.ar    1  UNL1       -0.2007
     16 C          60.0882   88.3729   10.4783 C.ar    1  UNL1        0.2210
     17 N          60.5475   87.4122   11.5348 N.ar    1  UNL1       -0.1451
     18 C          63.8252   84.7757   13.2768 C.3     1  UNL1        0.1622
     19 N          63.4049   85.2401   14.6398 N.ar    1  UNL1       -0.2272
     20 C          62.3509   84.6087   15.5003 C.ar    1  UNL1        0.1973
     21 N          62.2595   85.3958   16.7738 N.ar    1  UNL1       -0.2007
     22 C          63.2571   86.5136   16.7005 C.ar    1  UNL1        0.2210
     23 N          63.9650   86.4174   15.3816 N.ar    1  UNL1       -0.1451
@<TRIPOS>BOND
     1     1     2    1
     2     2    12    1
     3    12    13    1
     4    13    14   ar
     5    14    15   ar
     6    15    16   ar
     7    16    17   ar
     8     2    18    1
     9    18    19    1
    10    19    20   ar
    11    20    21   ar
    12    21    22   ar
    13    22    23   ar
    14     2     4    1
    15     4     5   ar
    16     5     6   ar
    17     6     7   ar
    18     7     8    1
    19     7     9   ar
    20     9    10   ar
    21    10    11    1
    22    17    13   ar
    23    23    19   ar
    24    10     4   ar
    25     1     3    1
@<TRIPOS>MOLECULE
*****
 23 25 0 0 0
SMALL
GASTEIGER

@<TRIPOS>ATOM
      1 O          68.3261   92.4657   11.4091 O.3     1  UNL1       -0.3786
      2 C          66.8809   92.7633   11.6787 C.3     1  UNL1        0.1541
      3 H          68.6339   91.7777   12.0197 H       1  UNL1        0.2108
      4 C          66.8871   93.7865   10.5818 C.ar    1  UNL1        0.0331
      5 C          66.2936   95.1436   10.8186 C.ar    1  UNL1        0.0026
      6 C          66.2998   96.1667    9.7218 C.ar    1  UNL1        0.0295
      7 C          66.8995   95.8328    8.3880 C.ar    1  UNL1        0.1424
      8 F          66.9057   96.8560    7.2911 F       1  UNL1       -0.2041
      9 C          67.4930   94.4757    8.1512 C.ar    1  UNL1        0.0590
     10 C          67.4868   93.4526    9.2480 C.ar    1  UNL1        0.1407
     11 F          68.0803   92.0955    9.0112 F       1  UNL1       -0.2043
     12 C          66.8747   91.7402   12.7755 C.3     1  UNL1        0.1622
     13 N          67.2901   92.1267   14.1641 N.ar    1  UNL1       -0.2272
     14 C          66.3945   92.1946   15.3655 C.ar    1  UNL1        0.1973
     15 N          67.2248   92.6231   16.5390 N.ar    1  UNL1       -0.2007
     16 C          68.6335   92.8200   16.0628 C.ar    1  UNL1        0.2210
     17 N          68.6738   92.5132   14.5950 N.ar    1  UNL1       -0.1451
     18 C          65.4357   93.0610   11.9482 C.3     1  UNL1        0.1622
     19 N          64.3961   92.0055   11.7135 N.ar    1  UNL1       -0.2272
     20 C          63.8350   91.6010   10.3825 C.ar    1  UNL1        0.1973
     21 N          62.8273   90.5147   10.6150 N.ar    1  UNL1       -0.2007
     22 C          62.7654   90.2477   12.0898 C.ar    1  UNL1        0.2210
     23 N          63.7349   91.1690   12.7688 N.ar    1  UNL1       -0.1451
@<TRIPOS>BOND
     1     1     2    1
     2     2    12    1
     3    12    13    1
     4    13    14   ar
     5    14    15   ar
     6    15    16   ar
     7    16    17   ar
     8     2    18    1
     9    18    19    1
    10    19    20   ar
    11    20    21   ar
    12    21    22   ar
    13    22    23   ar
    14     2     4    1
    15     4     5   ar
    16     5     6   ar
    17     6     7   ar
    18     7     8    1
    19     7     9   ar
    20     9    10   ar
    21    10    11    1
    22    17    13   ar
    23    23    19   ar
    24    10     4   ar
    25     1     3    1
@<TRIPOS>MOLECULE
*****
 23 25 0 0 0
SMALL
GASTEIGER

@<TRIPOS>ATOM
      1 O          62.4064   88.3782    9.6890 O.3     1  UNL1       -0.3786
      2 C          62.0068   87.1717   10.4855 C.3     1  UNL1        0.1541
      3 H          62.6066   89.1116   10.2915 H       1  UNL1        0.2108
      4 C          61.8198   86.3953    9.2157 C.ar    1  UNL1        0.0331
      5 C          62.9691   85.6323    8.6269 C.ar    1  UNL1        0.0026
      6 C          62.7820   84.8560    7.3571 C.ar    1  UNL1        0.0295
      7 C          61.4456   84.8429    6.6761 C.ar    1  UNL1        0.1424
      8 F          61.2585   84.0665    5.4063 F       1  UNL1       -0.2041
      9 C          60.2962   85.6059    7.2649 C.ar    1  UNL1        0.0590
     10 C          60.4833   86.3822    8.5347 C.ar    1  UNL1        0.1407
     11 F          59.3340   87.1453    9.1235 F       1  UNL1       -0.2043
     12 C          62.1939   87.9480   11.7553 C.3     1  UNL1        0.1622
     13 N          62.8404   89.3010   11.7188 N.ar    1  UNL1       -0.2272
     14 C          63.6831   89.9050   12.8028 C.ar    1  UNL1        0.1973
     15 N          64.1212   91.2649   12.3459 N.ar    1  UNL1       -0.2007
     16 C          63.5493   91.5014   10.9795 C.ar    1  UNL1        0.2210
     17 N          62.7577   90.2876   10.5920 N.ar    1  UNL1       -0.1451
     18 C          61.6072   85.9651   11.2821 C.3     1  UNL1        0.1622
     19 N          62.6386   85.2080   12.0650 N.ar    1  UNL1       -0.2272
     20 C          63.2871   83.9194   11.6538 C.ar    1  UNL1        0.1973
     21 N          64.2519   83.5215   12.7311 N.ar    1  UNL1       -0.2007
     22 C          64.1997   84.5642   13.8082 C.ar    1  UNL1        0.2210
     23 N          63.2027   85.6065   13.3966 N.ar    1  UNL1       -0.1451
@<TRIPOS>BOND
     1     1     2    1
     2     2    12    1
     3    12    13    1
     4    13    14   ar
     5    14    15   ar
     6    15    16   ar
     7    16    17   ar
     8     2    18    1
     9    18    19    1
    10    19    20   ar
    11    20    21   ar
    12    21    22   ar
    13    22    23   ar
    14     2     4    1
    15     4     5   ar
    16     5     6   ar
    17     6     7   ar
    18     7     8    1
    19     7     9   ar
    20     9    10   ar
    21    10    11    1
    22    17    13   ar
    23    23    19   ar
    24    10     4   ar
    25     1     3    1
