@<TRIPOS>MOLECULE
*****
 42 45 0 0 0
SMALL
GASTEIGER

@<TRIPOS>ATOM
      1 N          61.9843   90.0215   13.5585 N.3     1  UNL1       -0.2947
      2 H          62.0288   89.1311   14.0541 H       1  UNL1        0.1233
      3 C          63.2911   90.7172   13.7998 C.3     1  UNL1        0.0888
      4 C          63.9674   90.6013   15.1337 C.3     1  UNL1        0.0948
      5 N          65.3159   91.2226   15.3474 N.am    1  UNL1       -0.2706
      6 C          65.4830   92.3258   16.3500 C.2     1  UNL1        0.4020
      7 O          64.3017   92.8077   17.1387 O.2     1  UNL1       -0.2264
      8 H          66.0912   90.9063   14.8297 H       1  UNL1        0.1527
      9 O          66.8314   92.9471   16.5637 O.3     1  UNL1       -0.4274
     10 C          67.6935   93.2919   15.3856 C.3     1  UNL1        0.2621
     11 C          67.1488   93.1622   13.9941 C.ar    1  UNL1        0.1323
     12 N          66.0471   93.9874   13.3980 N.ar    1  UNL1       -0.2374
     13 C          65.8275   93.5197   11.9898 C.ar    1  UNL1        0.1062
     14 C          66.7936   92.4055   11.7155 C.ar    1  UNL1        0.0573
     15 S          67.6102   92.1846   12.9542 S.2     1  UNL1       -0.0666
     16 C          63.2953   89.8641   16.2539 C.3     1  UNL1        0.0474
     17 C          63.4051   88.3706   16.3413 C.ar    1  UNL1       -0.0205
     18 C          64.1992   87.6158   15.3168 C.ar    1  UNL1       -0.0042
     19 C          64.3090   86.1224   15.4042 C.ar    1  UNL1       -0.0003
     20 C          63.6247   85.3838   16.5161 C.ar    1  UNL1       -0.0000
     21 C          62.8306   86.1387   17.5406 C.ar    1  UNL1       -0.0003
     22 C          62.7208   87.6321   17.4531 C.ar    1  UNL1       -0.0042
     23 C          61.5451   89.7156   12.1573 C.3     1  UNL1        0.0888
     24 C          62.3257   88.7448   11.3217 C.3     1  UNL1        0.0948
     25 O          61.1690   85.9922   11.6134 O.2     1  UNL1       -0.2264
     26 C          62.5474   86.2849   12.1276 C.2     1  UNL1        0.4020
     27 N          63.1257   87.6611   11.9817 N.am    1  UNL1       -0.2706
     28 H          64.0304   87.8532   12.3191 H       1  UNL1        0.1527
     29 O          63.3474   85.2012   12.7876 O.3     1  UNL1       -0.4291
     30 C          63.5341   83.8816   12.0993 C.3     1  UNL1        0.2447
     31 C          62.9606   82.6335   12.7020 C.ar    1  UNL1        0.0714
     32 C          62.9504   81.2733   12.0697 C.ar    1  UNL1        0.1053
     33 N          62.2800   80.3256   13.0198 N.ar    1  UNL1       -0.2350
     34 C          61.8760   81.1001   14.2392 C.ar    1  UNL1        0.1343
     35 S          62.2966   82.5265   14.0428 S.2     1  UNL1       -0.0652
     36 C          62.3061   88.8576    9.8261 C.3     1  UNL1        0.0474
     37 C          61.2614   88.1303    9.0326 C.ar    1  UNL1       -0.0205
     38 C          60.0095   88.8412    8.6115 C.ar    1  UNL1       -0.0042
     39 C          58.9647   88.1140    7.8181 C.ar    1  UNL1       -0.0003
     40 C          59.1718   86.6758    7.4457 C.ar    1  UNL1       -0.0000
     41 C          60.4237   85.9649    7.8668 C.ar    1  UNL1       -0.0003
     42 C          61.4685   86.6922    8.6603 C.ar    1  UNL1       -0.0042
@<TRIPOS>BOND
     1    25    26    2
     2    26    27   am
     3    27    24    1
     4    24    23    1
     5    23     1    1
     6     1     3    1
     7     4     3    1
     8     4    16    1
     9    16    17    1
    10    17    18   ar
    11    18    19   ar
    12    19    20   ar
    13    20    21   ar
    14    21    22   ar
    15     4     5    1
    16     5     6   am
    17     6     7    2
    18     6     9    1
    19     9    10    1
    20    10    11    1
    21    11    12   ar
    22    12    13   ar
    23    13    14   ar
    24    14    15   ar
    25    24    36    1
    26    36    37    1
    27    37    38   ar
    28    38    39   ar
    29    39    40   ar
    30    40    41   ar
    31    41    42   ar
    32    26    29    1
    33    29    30    1
    34    30    31    1
    35    31    32   ar
    36    32    33   ar
    37    33    34   ar
    38    34    35   ar
    39    22    17   ar
    40    15    11   ar
    41    42    37   ar
    42    35    31   ar
    43    27    28    1
    44     1     2    1
    45     5     8    1
@<TRIPOS>MOLECULE
*****
 42 45 0 0 0
SMALL
GASTEIGER

@<TRIPOS>ATOM
      1 N          61.6000   89.7908   12.8387 N.3     1  UNL1       -0.2947
      2 H          61.4924   88.9824   13.4514 H       1  UNL1        0.1233
      3 C          63.0690   89.9426   12.5762 C.3     1  UNL1        0.0888
      4 C          63.9060   90.8055   13.4734 C.3     1  UNL1        0.0948
      5 N          64.7065   91.9344   12.8948 N.am    1  UNL1       -0.2706
      6 C          66.1374   92.1253   13.3026 C.2     1  UNL1        0.4020
      7 O          66.7676   91.1874   14.2890 O.2     1  UNL1       -0.2264
      8 H          64.2928   92.5500   12.2474 H       1  UNL1        0.1527
      9 O          66.9379   93.2542   12.7240 O.3     1  UNL1       -0.4274
     10 C          66.2399   94.4206   12.0897 C.3     1  UNL1        0.2621
     11 C          66.6478   94.8862   10.7234 C.ar    1  UNL1        0.1323
     12 N          67.6086   94.1906    9.8052 N.ar    1  UNL1       -0.2374
     13 C          67.7211   95.0037    8.5497 C.ar    1  UNL1        0.1062
     14 C          66.8299   96.2018    8.6920 C.ar    1  UNL1        0.0573
     15 S          66.1666   96.1292   10.0354 S.2     1  UNL1       -0.0666
     16 C          63.9424   90.5395   14.9492 C.3     1  UNL1        0.0474
     17 C          63.7984   89.1374   15.4624 C.ar    1  UNL1       -0.0205
     18 C          63.0161   88.8738   16.7148 C.ar    1  UNL1       -0.0042
     19 C          62.8721   87.4717   17.2279 C.ar    1  UNL1       -0.0003
     20 C          63.5104   86.3332   16.4887 C.ar    1  UNL1       -0.0000
     21 C          64.2927   86.5968   15.2363 C.ar    1  UNL1       -0.0003
     22 C          64.4367   87.9989   14.7232 C.ar    1  UNL1       -0.0042
     23 C          60.6499   89.5964   11.6944 C.3     1  UNL1        0.0888
     24 C          60.6458   88.3031   10.9344 C.3     1  UNL1        0.0948
     25 O          63.2063   87.1432   11.9821 O.2     1  UNL1       -0.2264
     26 C          61.9109   86.4184   12.1982 C.2     1  UNL1        0.4020
     27 N          60.6307   86.9984   11.6743 N.am    1  UNL1       -0.2706
     28 H          59.7804   86.5228   11.8161 H       1  UNL1        0.1527
     29 O          61.8958   85.1137   12.9381 O.3     1  UNL1       -0.4291
     30 C          62.9575   84.0882   12.6719 C.3     1  UNL1        0.2447
     31 C          62.7312   82.6566   13.0582 C.ar    1  UNL1        0.0714
     32 C          62.2867   82.1663   14.4044 C.ar    1  UNL1        0.1053
     33 N          62.1903   80.6705   14.3442 N.ar    1  UNL1       -0.2350
     34 C          62.5752   80.2364   12.9610 C.ar    1  UNL1        0.1343
     35 S          62.9095   81.4639   12.1662 S.2     1  UNL1       -0.0652
     36 C          60.6567   88.3146    9.4345 C.3     1  UNL1        0.0474
     37 C          61.1311   87.1089    8.6786 C.ar    1  UNL1       -0.0205
     38 C          60.2109   86.4163    7.7176 C.ar    1  UNL1       -0.0042
     39 C          60.6852   85.2106    6.9618 C.ar    1  UNL1       -0.0003
     40 C          62.0797   84.6975    7.1669 C.ar    1  UNL1       -0.0000
     41 C          62.9998   85.3901    8.1280 C.ar    1  UNL1       -0.0003
     42 C          62.5255   86.5958    8.8838 C.ar    1  UNL1       -0.0042
@<TRIPOS>BOND
     1    25    26    2
     2    26    27   am
     3    27    24    1
     4    24    23    1
     5    23     1    1
     6     1     3    1
     7     4     3    1
     8     4    16    1
     9    16    17    1
    10    17    18   ar
    11    18    19   ar
    12    19    20   ar
    13    20    21   ar
    14    21    22   ar
    15     4     5    1
    16     5     6   am
    17     6     7    2
    18     6     9    1
    19     9    10    1
    20    10    11    1
    21    11    12   ar
    22    12    13   ar
    23    13    14   ar
    24    14    15   ar
    25    24    36    1
    26    36    37    1
    27    37    38   ar
    28    38    39   ar
    29    39    40   ar
    30    40    41   ar
    31    41    42   ar
    32    26    29    1
    33    29    30    1
    34    30    31    1
    35    31    32   ar
    36    32    33   ar
    37    33    34   ar
    38    34    35   ar
    39    22    17   ar
    40    15    11   ar
    41    42    37   ar
    42    35    31   ar
    43    27    28    1
    44     1     2    1
    45     5     8    1
@<TRIPOS>MOLECULE
*****
 42 45 0 0 0
SMALL
GASTEIGER

@<TRIPOS>ATOM
      1 N          62.0842   89.0309   12.3926 N.3     1  UNL1       -0.2947
      2 H          62.4628   88.3900   13.0899 H       1  UNL1        0.1233
      3 C          62.5016   90.4122   12.8022 C.3     1  UNL1        0.0888
      4 C          63.8255   90.6275   13.4738 C.3     1  UNL1        0.0948
      5 N          64.9981   91.1208   12.6792 N.am    1  UNL1       -0.2706
      6 C          65.8481   92.2368   13.2104 C.2     1  UNL1        0.4020
      7 O          65.5253   92.8596   14.5362 O.2     1  UNL1       -0.2264
      8 H          65.2100   90.7120   11.8089 H       1  UNL1        0.1527
      9 O          67.0208   92.7300   12.4157 O.3     1  UNL1       -0.4274
     10 C          66.9605   92.7396   10.9170 C.3     1  UNL1        0.2621
     11 C          66.8458   94.0405   10.1792 C.ar    1  UNL1        0.1323
     12 N          65.8101   95.0996   10.4151 N.ar    1  UNL1       -0.2374
     13 C          66.0709   96.2245    9.4577 C.ar    1  UNL1        0.1062
     14 C          67.2679   95.8606    8.6301 C.ar    1  UNL1        0.0573
     15 S          67.7467   94.5109    9.0760 S.2     1  UNL1       -0.0666
     16 C          63.9766   90.3496   14.9401 C.3     1  UNL1        0.0474
     17 C          63.8227   88.9502   15.4580 C.ar    1  UNL1       -0.0205
     18 C          63.0814   88.7016   16.7381 C.ar    1  UNL1       -0.0042
     19 C          62.9275   87.3023   17.2559 C.ar    1  UNL1       -0.0003
     20 C          63.5149   86.1516   16.4937 C.ar    1  UNL1       -0.0000
     21 C          64.2561   86.4003   15.2136 C.ar    1  UNL1       -0.0003
     22 C          64.4100   87.7996   14.6958 C.ar    1  UNL1       -0.0042
     23 C          62.4825   88.4944   11.0498 C.3     1  UNL1        0.0888
     24 C          61.7426   87.3319   10.4570 C.3     1  UNL1        0.0948
     25 O          59.8479   89.4789    9.5624 O.2     1  UNL1       -0.2264
     26 C          60.3394   88.4561    8.5815 C.2     1  UNL1        0.4020
     27 N          61.2868   87.3826    9.0288 N.am    1  UNL1       -0.2706
     28 H          61.6094   86.7113    8.3850 H       1  UNL1        0.1527
     29 O          59.8836   88.5067    7.1534 O.3     1  UNL1       -0.4291
     30 C          58.7103   89.3592    6.7703 C.3     1  UNL1        0.2447
     31 C          58.8819   90.4674    5.7741 C.ar    1  UNL1        0.0714
     32 C          57.7845   91.3109    5.1959 C.ar    1  UNL1        0.1053
     33 N          58.4054   92.2915    4.2456 N.ar    1  UNL1       -0.2350
     34 C          59.8865   92.0539    4.2364 C.ar    1  UNL1        0.1343
     35 S          60.1809   90.9266    5.1811 S.2     1  UNL1       -0.0652
     36 C          61.4585   86.1189   11.2923 C.3     1  UNL1        0.0474
     37 C          62.4461   84.9908   11.3367 C.ar    1  UNL1       -0.0205
     38 C          63.0603   84.4813   10.0666 C.ar    1  UNL1       -0.0042
     39 C          64.0479   83.3531   10.1110 C.ar    1  UNL1       -0.0003
     40 C          64.4213   82.7345   11.4255 C.ar    1  UNL1       -0.0000
     41 C          63.8071   83.2439   12.6955 C.ar    1  UNL1       -0.0003
     42 C          62.8195   84.3721   12.6511 C.ar    1  UNL1       -0.0042
@<TRIPOS>BOND
     1    25    26    2
     2    26    27   am
     3    27    24    1
     4    24    23    1
     5    23     1    1
     6     1     3    1
     7     4     3    1
     8     4    16    1
     9    16    17    1
    10    17    18   ar
    11    18    19   ar
    12    19    20   ar
    13    20    21   ar
    14    21    22   ar
    15     4     5    1
    16     5     6   am
    17     6     7    2
    18     6     9    1
    19     9    10    1
    20    10    11    1
    21    11    12   ar
    22    12    13   ar
    23    13    14   ar
    24    14    15   ar
    25    24    36    1
    26    36    37    1
    27    37    38   ar
    28    38    39   ar
    29    39    40   ar
    30    40    41   ar
    31    41    42   ar
    32    26    29    1
    33    29    30    1
    34    30    31    1
    35    31    32   ar
    36    32    33   ar
    37    33    34   ar
    38    34    35   ar
    39    22    17   ar
    40    15    11   ar
    41    42    37   ar
    42    35    31   ar
    43    27    28    1
    44     1     2    1
    45     5     8    1
@<TRIPOS>MOLECULE
*****
 42 45 0 0 0
SMALL
GASTEIGER

@<TRIPOS>ATOM
      1 N          62.7929   88.6394   12.0925 N.3     1  UNL1       -0.2947
      2 H          62.1688   88.0265   12.6171 H       1  UNL1        0.1233
      3 C          62.4236   88.4977   10.6456 C.3     1  UNL1        0.0888
      4 C          61.5705   87.3477   10.1984 C.3     1  UNL1        0.0948
      5 N          60.9377   87.3677    8.8386 N.am    1  UNL1       -0.2706
      6 C          60.1093   88.5440    8.4140 C.2     1  UNL1        0.4020
      7 O          59.9138   89.7002    9.3493 O.2     1  UNL1       -0.2264
      8 H          61.0660   86.6087    8.2247 H       1  UNL1        0.1527
      9 O          59.4765   88.5639    7.0542 O.3     1  UNL1       -0.4274
     10 C          58.6214   89.7253    6.6419 C.3     1  UNL1        0.2621
     11 C          59.1155   90.6895    5.6046 C.ar    1  UNL1        0.1323
     12 N          60.5404   90.8621    5.1688 N.ar    1  UNL1       -0.2374
     13 C          60.5771   91.9298    4.1159 C.ar    1  UNL1        0.1062
     14 C          59.1749   92.4171    3.9008 C.ar    1  UNL1        0.0573
     15 S          58.2716   91.6506    4.8209 S.2     1  UNL1       -0.0666
     16 C          61.3503   86.1779   11.1110 C.3     1  UNL1        0.0474
     17 C          62.3759   85.0862   11.1919 C.ar    1  UNL1       -0.0205
     18 C          62.9796   84.5298    9.9366 C.ar    1  UNL1       -0.0042
     19 C          64.0052   83.4382   10.0176 C.ar    1  UNL1       -0.0003
     20 C          64.4271   82.9031   11.3539 C.ar    1  UNL1       -0.0000
     21 C          63.8234   83.4595   12.6092 C.ar    1  UNL1       -0.0003
     22 C          62.7978   84.5511   12.5282 C.ar    1  UNL1       -0.0042
     23 C          62.7347   89.9848   12.7531 C.3     1  UNL1        0.0888
     24 C          63.9487   90.5361   13.4403 C.3     1  UNL1        0.0948
     25 O          65.4556   92.7467   14.7976 O.2     1  UNL1       -0.2264
     26 C          65.6963   92.4562   13.3459 C.2     1  UNL1        0.4020
     27 N          64.9429   91.3509   12.6672 N.am    1  UNL1       -0.2706
     28 H          65.1010   91.1603   11.7144 H       1  UNL1        0.1527
     29 O          66.6905   93.2710   12.5728 O.3     1  UNL1       -0.4291
     30 C          66.2684   94.5609   11.9342 C.3     1  UNL1        0.2447
     31 C          66.7090   94.8858   10.5376 C.ar    1  UNL1        0.0714
     32 C          67.0866   93.8927    9.4787 C.ar    1  UNL1        0.1053
     33 N          67.4604   94.6541    8.2415 N.ar    1  UNL1       -0.2350
     34 C          67.3137   96.1176    8.5357 C.ar    1  UNL1        0.1343
     35 S          66.8493   96.2608    9.9548 S.2     1  UNL1       -0.0652
     36 C          64.1685   90.2726   14.9005 C.3     1  UNL1        0.0474
     37 C          63.9228   88.9031   15.4608 C.ar    1  UNL1       -0.0205
     38 C          63.1322   88.7407   16.7251 C.ar    1  UNL1       -0.0042
     39 C          62.8866   87.3711   17.2854 C.ar    1  UNL1       -0.0003
     40 C          63.4315   86.1639   16.5813 C.ar    1  UNL1       -0.0000
     41 C          64.2221   86.3263   15.3170 C.ar    1  UNL1       -0.0003
     42 C          64.4678   87.6959   14.7567 C.ar    1  UNL1       -0.0042
@<TRIPOS>BOND
     1    25    26    2
     2    26    27   am
     3    27    24    1
     4    24    23    1
     5    23     1    1
     6     1     3    1
     7     4     3    1
     8     4    16    1
     9    16    17    1
    10    17    18   ar
    11    18    19   ar
    12    19    20   ar
    13    20    21   ar
    14    21    22   ar
    15     4     5    1
    16     5     6   am
    17     6     7    2
    18     6     9    1
    19     9    10    1
    20    10    11    1
    21    11    12   ar
    22    12    13   ar
    23    13    14   ar
    24    14    15   ar
    25    24    36    1
    26    36    37    1
    27    37    38   ar
    28    38    39   ar
    29    39    40   ar
    30    40    41   ar
    31    41    42   ar
    32    26    29    1
    33    29    30    1
    34    30    31    1
    35    31    32   ar
    36    32    33   ar
    37    33    34   ar
    38    34    35   ar
    39    22    17   ar
    40    15    11   ar
    41    42    37   ar
    42    35    31   ar
    43    27    28    1
    44     1     2    1
    45     5     8    1
@<TRIPOS>MOLECULE
*****
 42 45 0 0 0
SMALL
GASTEIGER

@<TRIPOS>ATOM
      1 N          61.6359   89.3784   12.3299 N.3     1  UNL1       -0.2947
      2 H          61.3653   88.4022   12.4490 H       1  UNL1        0.1233
      3 C          63.1325   89.4266   12.4173 C.3     1  UNL1        0.0888
      4 C          63.7957   89.8857   13.6820 C.3     1  UNL1        0.0948
      5 N          64.1056   88.8980   14.7676 N.am    1  UNL1       -0.2706
      6 C          63.1428   88.7028   15.9012 C.2     1  UNL1        0.4020
      7 O          61.8701   89.4953   15.9492 O.2     1  UNL1       -0.2264
      8 H          64.9409   88.3779   14.7361 H       1  UNL1        0.1527
      9 O          63.4527   87.7152   16.9868 O.3     1  UNL1       -0.4274
     10 C          62.9354   86.3104   16.8927 C.3     1  UNL1        0.2621
     11 C          63.5110   85.3654   15.8799 C.ar    1  UNL1        0.1323
     12 N          64.7305   85.6079   15.0408 N.ar    1  UNL1       -0.2374
     13 C          64.9413   84.4045   14.1706 C.ar    1  UNL1        0.1062
     14 C          63.8521   83.4181   14.4719 C.ar    1  UNL1        0.0573
     15 S          62.9681   84.0121   15.5282 S.2     1  UNL1       -0.0666
     16 C          64.1488   91.3325   13.8612 C.3     1  UNL1        0.0474
     17 C          65.5064   91.7155   14.3714 C.ar    1  UNL1       -0.0205
     18 C          66.7067   91.5841   13.4814 C.ar    1  UNL1       -0.0042
     19 C          68.0642   91.9671   13.9916 C.ar    1  UNL1       -0.0003
     20 C          68.2215   92.4816   15.3918 C.ar    1  UNL1       -0.0000
     21 C          67.0212   92.6131   16.2818 C.ar    1  UNL1       -0.0003
     22 C          65.6637   92.2300   15.7716 C.ar    1  UNL1       -0.0042
     23 C          60.9403   89.8732   11.0966 C.3     1  UNL1        0.0888
     24 C          60.5719   88.9112   10.0062 C.3     1  UNL1        0.0948
     25 O          58.6242   87.6291    8.1188 O.2     1  UNL1       -0.2264
     26 C          59.5060   88.7452    7.6427 C.2     1  UNL1        0.4020
     27 N          60.4799   89.3863    8.5864 N.am    1  UNL1       -0.2706
     28 H          61.0586   90.1188    8.2739 H       1  UNL1        0.1527
     29 O          59.4140   89.2203    6.2229 O.3     1  UNL1       -0.4291
     30 C          59.0157   90.6365    5.9302 C.3     1  UNL1        0.2447
     31 C          59.7135   91.4031    4.8460 C.ar    1  UNL1        0.0714
     32 C          61.1564   91.2676    4.4590 C.ar    1  UNL1        0.1053
     33 N          61.4255   92.2205    3.3322 N.ar    1  UNL1       -0.2350
     34 C          60.1490   92.9449    3.0228 C.ar    1  UNL1        0.1343
     35 S          59.0909   92.4397    3.9584 S.2     1  UNL1       -0.0652
     36 C          60.2956   87.4742   10.3356 C.3     1  UNL1        0.0474
     37 C          61.3539   86.4357   10.1083 C.ar    1  UNL1       -0.0205
     38 C          61.9545   86.2629    8.7447 C.ar    1  UNL1       -0.0042
     39 C          63.0127   85.2245    8.5173 C.ar    1  UNL1       -0.0003
     40 C          63.4704   84.3588    9.6535 C.ar    1  UNL1       -0.0000
     41 C          62.8698   84.5315   11.0171 C.ar    1  UNL1       -0.0003
     42 C          61.8116   85.5700   11.2445 C.ar    1  UNL1       -0.0042
@<TRIPOS>BOND
     1    25    26    2
     2    26    27   am
     3    27    24    1
     4    24    23    1
     5    23     1    1
     6     1     3    1
     7     4     3    1
     8     4    16    1
     9    16    17    1
    10    17    18   ar
    11    18    19   ar
    12    19    20   ar
    13    20    21   ar
    14    21    22   ar
    15     4     5    1
    16     5     6   am
    17     6     7    2
    18     6     9    1
    19     9    10    1
    20    10    11    1
    21    11    12   ar
    22    12    13   ar
    23    13    14   ar
    24    14    15   ar
    25    24    36    1
    26    36    37    1
    27    37    38   ar
    28    38    39   ar
    29    39    40   ar
    30    40    41   ar
    31    41    42   ar
    32    26    29    1
    33    29    30    1
    34    30    31    1
    35    31    32   ar
    36    32    33   ar
    37    33    34   ar
    38    34    35   ar
    39    22    17   ar
    40    15    11   ar
    41    42    37   ar
    42    35    31   ar
    43    27    28    1
    44     1     2    1
    45     5     8    1
@<TRIPOS>MOLECULE
*****
 42 45 0 0 0
SMALL
GASTEIGER

@<TRIPOS>ATOM
      1 N          61.7128   89.5554   12.0024 N.3     1  UNL1       -0.2947
      2 H          61.2166   89.5924   12.8928 H       1  UNL1        0.1233
      3 C          60.7345   89.9710   10.9440 C.3     1  UNL1        0.0888
      4 C          60.3835   89.0250    9.8340 C.3     1  UNL1        0.0948
      5 N          60.3207   89.5193    8.4191 N.am    1  UNL1       -0.2706
      6 C          59.4080   88.8538    7.4321 C.2     1  UNL1        0.4020
      7 O          58.5581   87.6942    7.8599 O.2     1  UNL1       -0.2264
      8 H          60.8785   90.2804    8.1383 H       1  UNL1        0.1527
      9 O          59.3451   89.3480    6.0172 O.3     1  UNL1       -0.4274
     10 C          58.9427   90.7652    5.7350 C.3     1  UNL1        0.2621
     11 C          59.6409   91.5430    4.6591 C.ar    1  UNL1        0.1323
     12 N          59.0131   92.5719    3.7663 N.ar    1  UNL1       -0.2374
     13 C          60.0737   93.0934    2.8426 C.ar    1  UNL1        0.1062
     14 C          61.3570   92.3867    3.1645 C.ar    1  UNL1        0.0573
     15 S          61.0896   91.4286    4.2872 S.2     1  UNL1       -0.0666
     16 C          60.0953   87.5849   10.1389 C.3     1  UNL1        0.0474
     17 C          61.1809   86.5583   10.0057 C.ar    1  UNL1       -0.0205
     18 C          61.8178   86.3090    8.6708 C.ar    1  UNL1       -0.0042
     19 C          62.9033   85.2824    8.5377 C.ar    1  UNL1       -0.0003
     20 C          63.3519   84.5051    9.7396 C.ar    1  UNL1       -0.0000
     21 C          62.7151   84.7544   11.0745 C.ar    1  UNL1       -0.0003
     22 C          61.6296   85.7810   11.2076 C.ar    1  UNL1       -0.0042
     23 C          62.9894   90.3212   12.1859 C.3     1  UNL1        0.0888
     24 C          63.7198   90.2591   13.4947 C.3     1  UNL1        0.0948
     25 O          62.3741   89.3374   16.0125 O.2     1  UNL1       -0.2264
     26 C          63.4033   88.4694   15.3513 C.2     1  UNL1        0.4020
     27 N          64.0761   88.9302   14.0924 N.am    1  UNL1       -0.2706
     28 H          64.7516   88.3605   13.6583 H       1  UNL1        0.1527
     29 O          63.7596   87.1406   15.9489 O.3     1  UNL1       -0.4291
     30 C          64.5395   86.1420   15.1461 C.3     1  UNL1        0.2447
     31 C          63.9488   84.7967   14.8442 C.ar    1  UNL1        0.0714
     32 C          64.5828   83.7221   14.0115 C.ar    1  UNL1        0.1053
     33 N          63.6462   82.5510   13.9748 N.ar    1  UNL1       -0.2350
     34 C          62.4334   82.9018   14.7848 C.ar    1  UNL1        0.1343
     35 S          62.6204   84.2897   15.3221 S.2     1  UNL1       -0.0652
     36 C          64.0937   91.5258   14.2058 C.3     1  UNL1        0.0474
     37 C          65.5341   91.8238   14.4996 C.ar    1  UNL1       -0.0205
     38 C          65.9339   92.3323   15.8529 C.ar    1  UNL1       -0.0042
     39 C          67.3744   92.6303   16.1467 C.ar    1  UNL1       -0.0003
     40 C          68.4150   92.4198   15.0872 C.ar    1  UNL1       -0.0000
     41 C          68.0152   91.9112   13.7338 C.ar    1  UNL1       -0.0003
     42 C          66.5748   91.6132   13.4400 C.ar    1  UNL1       -0.0042
@<TRIPOS>BOND
     1    25    26    2
     2    26    27   am
     3    27    24    1
     4    24    23    1
     5    23     1    1
     6     1     3    1
     7     4     3    1
     8     4    16    1
     9    16    17    1
    10    17    18   ar
    11    18    19   ar
    12    19    20   ar
    13    20    21   ar
    14    21    22   ar
    15     4     5    1
    16     5     6   am
    17     6     7    2
    18     6     9    1
    19     9    10    1
    20    10    11    1
    21    11    12   ar
    22    12    13   ar
    23    13    14   ar
    24    14    15   ar
    25    24    36    1
    26    36    37    1
    27    37    38   ar
    28    38    39   ar
    29    39    40   ar
    30    40    41   ar
    31    41    42   ar
    32    26    29    1
    33    29    30    1
    34    30    31    1
    35    31    32   ar
    36    32    33   ar
    37    33    34   ar
    38    34    35   ar
    39    22    17   ar
    40    15    11   ar
    41    42    37   ar
    42    35    31   ar
    43    27    28    1
    44     1     2    1
    45     5     8    1
@<TRIPOS>MOLECULE
*****
 42 45 0 0 0
SMALL
GASTEIGER

@<TRIPOS>ATOM
      1 N          63.8385   87.3515   14.3208 N.3     1  UNL1       -0.2947
      2 H          62.8836   87.3285   14.6787 H       1  UNL1        0.1233
      3 C          63.7872   86.8277   12.9162 C.3     1  UNL1        0.0888
      4 C          62.7356   85.8321   12.5249 C.3     1  UNL1        0.0948
      5 N          62.8290   84.4144   13.0058 N.am    1  UNL1       -0.2706
      6 C          62.6047   84.0976   14.4548 C.2     1  UNL1        0.4020
      7 O          62.2871   85.1985   15.4227 O.2     1  UNL1       -0.2264
      8 H          63.0375   83.6918   12.3705 H       1  UNL1        0.1527
      9 O          62.6981   82.6799   14.9357 O.3     1  UNL1       -0.4274
     10 C          63.6144   81.7128   14.2463 C.3     1  UNL1        0.2621
     11 C          63.6611   81.6620   12.7479 C.ar    1  UNL1        0.1323
     12 N          64.6069   82.4254   11.8689 N.ar    1  UNL1       -0.2374
     13 C          64.3006   82.0741   10.4431 C.ar    1  UNL1        0.1062
     14 C          63.1655   81.0936   10.4409 C.ar    1  UNL1        0.0573
     15 S          62.7703   80.8389   11.8653 S.2     1  UNL1       -0.0666
     16 C          61.5906   86.2543   11.6527 C.3     1  UNL1        0.0474
     17 C          61.6248   85.9700   10.1803 C.ar    1  UNL1       -0.0205
     18 C          62.8470   85.3576    9.5628 C.ar    1  UNL1       -0.0042
     19 C          62.8811   85.0734    8.0905 C.ar    1  UNL1       -0.0003
     20 C          61.6931   85.4014    7.2355 C.ar    1  UNL1       -0.0000
     21 C          60.4709   86.0138    7.8529 C.ar    1  UNL1       -0.0003
     22 C          60.4368   86.2981    9.3253 C.ar    1  UNL1       -0.0042
     23 C          64.3683   88.7289   14.5886 C.3     1  UNL1        0.0888
     24 C          63.9179   89.8833   13.7432 C.3     1  UNL1        0.0948
     25 O          65.0954   92.0982   15.3885 O.2     1  UNL1       -0.2264
     26 C          65.5193   91.9175   13.9611 C.2     1  UNL1        0.4020
     27 N          64.9305   90.8100   13.1384 N.am    1  UNL1       -0.2706
     28 H          65.2087   90.6914   12.2015 H       1  UNL1        0.1527
     29 O          66.5319   92.8443   13.3563 O.3     1  UNL1       -0.4291
     30 C          66.1208   93.8056   12.2808 C.3     1  UNL1        0.2447
     31 C          66.8056   93.7760   10.9466 C.ar    1  UNL1        0.0714
     32 C          67.4717   92.5850   10.3236 C.ar    1  UNL1        0.1053
     33 N          68.0223   93.0052    8.9931 N.ar    1  UNL1       -0.2350
     34 C          67.6965   94.4558    8.7937 C.ar    1  UNL1        0.1343
     35 S          66.9445   94.9321   10.0010 S.2     1  UNL1       -0.0652
     36 C          62.4550   90.1108   13.5026 C.3     1  UNL1        0.0474
     37 C          61.8892   89.9576   12.1218 C.ar    1  UNL1       -0.0205
     38 C          62.8074   89.7510   10.9538 C.ar    1  UNL1       -0.0042
     39 C          62.2416   89.5978    9.5731 C.ar    1  UNL1       -0.0003
     40 C          60.7578   89.6511    9.3603 C.ar    1  UNL1       -0.0000
     41 C          59.8397   89.8577   10.5284 C.ar    1  UNL1       -0.0003
     42 C          60.4054   90.0109   11.9091 C.ar    1  UNL1       -0.0042
@<TRIPOS>BOND
     1    25    26    2
     2    26    27   am
     3    27    24    1
     4    24    23    1
     5    23     1    1
     6     1     3    1
     7     4     3    1
     8     4    16    1
     9    16    17    1
    10    17    18   ar
    11    18    19   ar
    12    19    20   ar
    13    20    21   ar
    14    21    22   ar
    15     4     5    1
    16     5     6   am
    17     6     7    2
    18     6     9    1
    19     9    10    1
    20    10    11    1
    21    11    12   ar
    22    12    13   ar
    23    13    14   ar
    24    14    15   ar
    25    24    36    1
    26    36    37    1
    27    37    38   ar
    28    38    39   ar
    29    39    40   ar
    30    40    41   ar
    31    41    42   ar
    32    26    29    1
    33    29    30    1
    34    30    31    1
    35    31    32   ar
    36    32    33   ar
    37    33    34   ar
    38    34    35   ar
    39    22    17   ar
    40    15    11   ar
    41    42    37   ar
    42    35    31   ar
    43    27    28    1
    44     1     2    1
    45     5     8    1
@<TRIPOS>MOLECULE
*****
 42 45 0 0 0
SMALL
GASTEIGER

@<TRIPOS>ATOM
      1 N          63.4506   88.7983   12.5970 N.3     1  UNL1       -0.2947
      2 H          63.2769   88.0143   13.2258 H       1  UNL1        0.1233
      3 C          62.7648   88.4754   11.3026 C.3     1  UNL1        0.0888
      4 C          61.9164   87.2434   11.1903 C.3     1  UNL1        0.0948
      5 N          62.5299   85.8894   11.3911 N.am    1  UNL1       -0.2706
      6 C          62.9505   85.0732   10.2049 C.2     1  UNL1        0.4020
      7 O          62.7577   85.6110    8.8180 O.2     1  UNL1       -0.2264
      8 H          62.6564   85.5365   12.3014 H       1  UNL1        0.1527
      9 O          63.5640   83.7192   10.4058 O.3     1  UNL1       -0.4274
     10 C          64.0418   83.3067   11.7664 C.3     1  UNL1        0.2621
     11 C          63.2244   82.3586   12.5928 C.ar    1  UNL1        0.1323
     12 N          63.0349   80.8947   12.3263 N.ar    1  UNL1       -0.2374
     13 C          62.1463   80.3393   13.3996 C.ar    1  UNL1        0.1062
     14 C          61.7866   81.4600   14.3295 C.ar    1  UNL1        0.0573
     15 S          62.4529   82.7079   13.8309 S.2     1  UNL1       -0.0666
     16 C          60.4546   87.3655   10.8771 C.3     1  UNL1        0.0474
     17 C          60.0135   87.7769    9.5037 C.ar    1  UNL1       -0.0205
     18 C          59.4171   86.7634    8.5725 C.ar    1  UNL1       -0.0042
     19 C          58.9761   87.1748    7.1991 C.ar    1  UNL1       -0.0003
     20 C          59.1316   88.5997    6.7569 C.ar    1  UNL1       -0.0000
     21 C          59.7280   89.6132    7.6880 C.ar    1  UNL1       -0.0003
     22 C          60.1690   89.2018    9.0614 C.ar    1  UNL1       -0.0042
     23 C          63.0866   90.0447   13.3479 C.3     1  UNL1        0.0888
     24 C          63.8819   90.4541   14.5521 C.3     1  UNL1        0.0948
     25 O          64.4852   91.6668   11.8753 O.2     1  UNL1       -0.2264
     26 C          65.3164   92.0329   13.0691 C.2     1  UNL1        0.4020
     27 N          65.0148   91.4266   14.4074 N.am    1  UNL1       -0.2706
     28 H          65.5603   91.6669   15.1909 H       1  UNL1        0.1527
     29 O          66.4493   93.0054   12.9244 O.3     1  UNL1       -0.4291
     30 C          66.2447   94.2892   12.1762 C.3     1  UNL1        0.2447
     31 C          66.7474   94.4258   10.7695 C.ar    1  UNL1        0.0714
     32 C          67.3592   93.3344    9.9420 C.ar    1  UNL1        0.1053
     33 N          67.7164   93.9118    8.6044 N.ar    1  UNL1       -0.2350
     34 C          67.3254   95.3600    8.6053 C.ar    1  UNL1        0.1343
     35 S          66.7265   95.6776    9.9433 S.2     1  UNL1       -0.0652
     36 C          63.5444   89.8910   15.9008 C.3     1  UNL1        0.0474
     37 C          63.5489   88.4066   16.1163 C.ar    1  UNL1       -0.0205
     38 C          62.8291   87.8174   17.2930 C.ar    1  UNL1       -0.0042
     39 C          62.8336   86.3329   17.5085 C.ar    1  UNL1       -0.0003
     40 C          63.5578   85.4377   16.5473 C.ar    1  UNL1       -0.0000
     41 C          64.2776   86.0269   15.3706 C.ar    1  UNL1       -0.0003
     42 C          64.2732   87.5113   15.1551 C.ar    1  UNL1       -0.0042
@<TRIPOS>BOND
     1    25    26    2
     2    26    27   am
     3    27    24    1
     4    24    23    1
     5    23     1    1
     6     1     3    1
     7     4     3    1
     8     4    16    1
     9    16    17    1
    10    17    18   ar
    11    18    19   ar
    12    19    20   ar
    13    20    21   ar
    14    21    22   ar
    15     4     5    1
    16     5     6   am
    17     6     7    2
    18     6     9    1
    19     9    10    1
    20    10    11    1
    21    11    12   ar
    22    12    13   ar
    23    13    14   ar
    24    14    15   ar
    25    24    36    1
    26    36    37    1
    27    37    38   ar
    28    38    39   ar
    29    39    40   ar
    30    40    41   ar
    31    41    42   ar
    32    26    29    1
    33    29    30    1
    34    30    31    1
    35    31    32   ar
    36    32    33   ar
    37    33    34   ar
    38    34    35   ar
    39    22    17   ar
    40    15    11   ar
    41    42    37   ar
    42    35    31   ar
    43    27    28    1
    44     1     2    1
    45     5     8    1
@<TRIPOS>MOLECULE
*****
 42 45 0 0 0
SMALL
GASTEIGER

@<TRIPOS>ATOM
      1 N          62.8181   88.0472   11.8384 N.3     1  UNL1       -0.2947
      2 H          61.9976   88.0793   11.2334 H       1  UNL1        0.1233
      3 C          62.6760   89.1719   12.8207 C.3     1  UNL1        0.0888
      4 C          63.8965   89.8708   13.3423 C.3     1  UNL1        0.0948
      5 N          64.2738   91.2206   12.8078 N.am    1  UNL1       -0.2706
      6 C          64.1703   91.5009   11.3378 C.2     1  UNL1        0.4020
      7 O          63.6895   90.4314   10.4024 O.2     1  UNL1       -0.2264
      8 H          64.5893   91.9226   13.4217 H       1  UNL1        0.1527
      9 O          64.5475   92.8507   10.8033 O.3     1  UNL1       -0.4274
     10 C          65.9421   93.3695   10.9930 C.3     1  UNL1        0.2621
     11 C          66.4134   94.5578   10.2084 C.ar    1  UNL1        0.1323
     12 N          67.1122   94.5176    8.8817 N.ar    1  UNL1       -0.2374
     13 C          67.3995   95.9300    8.4660 C.ar    1  UNL1        0.1062
     14 C          66.8781   96.8431    9.5358 C.ar    1  UNL1        0.0573
     15 S          66.2688   95.9951   10.6126 S.2     1  UNL1       -0.0666
     16 C          64.7396   89.2199   14.3984 C.3     1  UNL1        0.0474
     17 C          64.1287   88.2204   15.3354 C.ar    1  UNL1       -0.0205
     18 C          64.3465   86.7531   15.1129 C.ar    1  UNL1       -0.0042
     19 C          63.7356   85.7537   16.0499 C.ar    1  UNL1       -0.0003
     20 C          62.9069   86.2216   17.2093 C.ar    1  UNL1       -0.0000
     21 C          62.6890   87.6889   17.4318 C.ar    1  UNL1       -0.0003
     22 C          63.2999   88.6883   16.4948 C.ar    1  UNL1       -0.0042
     23 C          62.9401   86.6347   12.3282 C.3     1  UNL1        0.0888
     24 C          62.6156   85.4924   11.4117 C.3     1  UNL1        0.0948
     25 O          63.0814   85.9769    8.4880 O.2     1  UNL1       -0.2264
     26 C          61.6829   85.8341    9.0110 C.2     1  UNL1        0.4020
     27 N          61.4500   85.5919   10.4729 N.am    1  UNL1       -0.2706
     28 H          60.5321   85.4982   10.8162 H       1  UNL1        0.1527
     29 O          60.5172   85.9336    8.0722 O.3     1  UNL1       -0.4291
     30 C          59.4595   86.9730    8.2974 C.3     1  UNL1        0.2447
     31 C          59.7131   88.1084    9.2442 C.ar    1  UNL1        0.0714
     32 C          59.4325   88.1070   10.7178 C.ar    1  UNL1        0.1053
     33 N          59.8379   89.4423   11.2680 N.ar    1  UNL1       -0.2350
     34 C          60.3690   90.2689   10.1346 C.ar    1  UNL1        0.1343
     35 S          60.2919   89.4445    8.8838 S.2     1  UNL1       -0.0652
     36 C          63.4569   84.2507   11.4340 C.3     1  UNL1        0.0474
     37 C          63.0135   83.0586   12.2291 C.ar    1  UNL1       -0.0205
     38 C          62.5087   83.2372   13.6302 C.ar    1  UNL1       -0.0042
     39 C          62.0653   82.0451   14.4254 C.ar    1  UNL1       -0.0003
     40 C          62.1267   80.6743   13.8194 C.ar    1  UNL1       -0.0000
     41 C          62.6315   80.4957   12.4182 C.ar    1  UNL1       -0.0003
     42 C          63.0749   81.6879   11.6231 C.ar    1  UNL1       -0.0042
@<TRIPOS>BOND
     1    25    26    2
     2    26    27   am
     3    27    24    1
     4    24    23    1
     5    23     1    1
     6     1     3    1
     7     4     3    1
     8     4    16    1
     9    16    17    1
    10    17    18   ar
    11    18    19   ar
    12    19    20   ar
    13    20    21   ar
    14    21    22   ar
    15     4     5    1
    16     5     6   am
    17     6     7    2
    18     6     9    1
    19     9    10    1
    20    10    11    1
    21    11    12   ar
    22    12    13   ar
    23    13    14   ar
    24    14    15   ar
    25    24    36    1
    26    36    37    1
    27    37    38   ar
    28    38    39   ar
    29    39    40   ar
    30    40    41   ar
    31    41    42   ar
    32    26    29    1
    33    29    30    1
    34    30    31    1
    35    31    32   ar
    36    32    33   ar
    37    33    34   ar
    38    34    35   ar
    39    22    17   ar
    40    15    11   ar
    41    42    37   ar
    42    35    31   ar
    43    27    28    1
    44     1     2    1
    45     5     8    1
