@<TRIPOS>MOLECULE
*****
 44 46 0 0 0
SMALL
GASTEIGER

@<TRIPOS>ATOM
      1 C          63.4800   89.2015   12.7843 C.ar    1  UNL1        0.0539
      2 S          64.6845   90.0884   12.8964 S.2     1  UNL1       -0.0619
      3 C          64.2795   91.4740   12.4889 C.ar    1  UNL1        0.1641
      4 N          62.8246   91.4435   12.1249 N.ar    1  UNL1       -0.2291
      5 C          62.3305   90.0390   12.3075 C.ar    1  UNL1        0.1414
      6 C          60.9324   89.5568   12.0573 C.2     1  UNL1        0.2672
      7 O          59.8927   89.6805   13.1316 O.2     1  UNL1       -0.2682
      8 N          60.5737   88.9508   10.7329 N.am    1  UNL1       -0.2763
      9 C          59.1756   88.4686   10.4827 C.3     1  UNL1        0.0965
     10 C          58.8170   87.8626    9.1582 C.3     1  UNL1        0.0568
     11 C          59.8565   87.7389    8.0839 C.3     1  UNL1        0.1643
     12 F          59.4979   87.1329    6.7595 F       1  UNL1       -0.2372
     13 C          61.2547   88.2211    8.3341 C.3     1  UNL1        0.0551
     14 C          61.6133   88.8271    9.6586 C.3     1  UNL1        0.0785
     15 C          63.0114   89.3094    9.9088 C.3     1  UNL1        0.0216
     16 C          63.3394   84.8011   13.7150 C.ar    1  UNL1        0.1333
     17 C          62.9197   85.2954   12.3624 C.ar    1  UNL1        0.0208
     18 C          62.9666   86.7622   12.0522 C.ar    1  UNL1        0.0028
     19 C          63.4331   87.7347   13.0945 C.ar    1  UNL1        0.0191
     20 C          63.8528   87.2404   14.4471 C.ar    1  UNL1        0.0700
     21 CL         64.3194   88.2129   15.4895 Cl      1  UNL1       -0.0813
     22 C          63.8060   85.7736   14.7573 C.ar    1  UNL1        0.0867
     23 CL         64.2257   85.2793   16.1100 Cl      1  UNL1       -0.0800
     24 S          63.2926   83.3342   14.0252 S.O2    1  UNL1        0.0613
     25 O          64.6049   83.1441   13.3241 O.2     1  UNL1       -0.1530
     26 O          61.9802   83.5244   14.7263 O.2     1  UNL1       -0.1530
     27 N          63.2457   81.8674   14.3355 N.3     1  UNL1       -0.1723
     28 H          64.1692   81.4914   14.1205 H       1  UNL1        0.1491
     29 C          60.9121   80.7270   14.2762 C.3     1  UNL1        0.0278
     30 C          62.2477   80.9862   13.6446 C.3     1  UNL1        0.1701
     31 C          62.5853   80.3642   12.3220 C.3     1  UNL1        0.4118
     32 F          62.9229   79.7421   10.9995 F       1  UNL1       -0.1685
     33 F          62.4488   81.7021   11.6578 F       1  UNL1       -0.1685
     34 F          62.7219   79.0262   12.9862 F       1  UNL1       -0.1685
     35 C          65.1726   92.6786   12.4518 C.2     1  UNL1        0.2699
     36 O          65.7718   93.2074   13.7212 O.2     1  UNL1       -0.2679
     37 N          65.4664   93.3544   11.1453 N.am    1  UNL1       -0.2969
     38 H          65.0731   93.0074   10.3122 H       1  UNL1        0.1499
     39 C          66.3595   94.5590   11.1082 C.3     1  UNL1        0.1166
     40 C          67.1713   94.8533    9.8816 C.3     1  UNL1        0.1064
     41 C          67.4354   93.3874    9.7047 C.3     1  UNL1        0.0311
     42 C          66.9070   96.3193   10.0585 C.3     1  UNL1        0.0311
     43 O          67.9830   95.1476    8.6550 O.3     1  UNL1       -0.3851
     44 H          68.3190   94.3173    8.2828 H       1  UNL1        0.2103
@<TRIPOS>BOND
     1    30    29    1
     2    30    27    1
     3    27    24    1
     4    24    25    2
     5    24    26    2
     6    24    16    1
     7    16    17   ar
     8    17    18   ar
     9    18    19   ar
    10    19     1    1
    11     1     2   ar
    12     2     3   ar
    13     3    35    1
    14    35    36    2
    15    35    37   am
    16    37    39    1
    17    39    40    1
    18    40    41    1
    19    40    42    1
    20    40    43    1
    21     3     4   ar
    22     4     5   ar
    23     5     6    1
    24     6     7    2
    25     6     8   am
    26     8     9    1
    27     9    10    1
    28    10    11    1
    29    11    12    1
    30    11    13    1
    31    13    14    1
    32    14    15    1
    33    19    20   ar
    34    20    21    1
    35    20    22   ar
    36    22    23    1
    37    30    31    1
    38    31    32    1
    39    31    33    1
    40    31    34    1
    41    22    16   ar
    42     5     1   ar
    43    14     8    1
    44    27    28    1
    45    37    38    1
    46    43    44    1
@<TRIPOS>MOLECULE
*****
 44 46 0 0 0
SMALL
GASTEIGER

@<TRIPOS>ATOM
      1 C          63.8363   89.1171   14.2833 C.ar    1  UNL1        0.0539
      2 S          65.0774   89.8785   14.6436 S.2     1  UNL1       -0.0619
      3 C          64.8136   91.3355   14.4035 C.ar    1  UNL1        0.1641
      4 N          63.4094   91.4746   13.8949 N.ar    1  UNL1       -0.2291
      5 C          62.8054   90.1036   13.8205 C.ar    1  UNL1        0.1414
      6 C          61.4146   89.7765   13.3637 C.2     1  UNL1        0.2672
      7 O          60.3169   89.5983   14.3704 O.2     1  UNL1       -0.2682
      8 N          61.1214   89.6276   11.9002 N.am    1  UNL1       -0.2763
      9 C          59.7306   89.3005   11.4434 C.3     1  UNL1        0.0965
     10 C          59.4375   89.1516    9.9798 C.3     1  UNL1        0.0568
     11 C          60.5351   89.3298    8.9731 C.3     1  UNL1        0.1643
     12 F          60.2420   89.1809    7.5096 F       1  UNL1       -0.2372
     13 C          61.9259   89.6569    9.4299 C.3     1  UNL1        0.0551
     14 C          62.2191   89.8058   10.8934 C.3     1  UNL1        0.0785
     15 C          63.6099   90.1329   11.3503 C.3     1  UNL1        0.0216
     16 C          63.2998   84.6569   14.5446 C.ar    1  UNL1        0.1333
     17 C          63.5664   85.3037   13.2178 C.ar    1  UNL1        0.0208
     18 C          63.7453   86.7905   13.1307 C.ar    1  UNL1        0.0028
     19 C          63.6575   87.6304   14.3704 C.ar    1  UNL1        0.0191
     20 C          63.3908   86.9835   15.6972 C.ar    1  UNL1        0.0700
     21 CL         63.3030   87.8234   16.9370 Cl      1  UNL1       -0.0813
     22 C          63.2120   85.4968   15.7843 C.ar    1  UNL1        0.0867
     23 CL         62.9454   84.8499   17.1112 Cl      1  UNL1       -0.0800
     24 S          63.1210   83.1701   14.6318 S.O2    1  UNL1        0.0613
     25 O          61.6442   83.3585   14.8155 O.2     1  UNL1       -0.1530
     26 O          64.5977   82.9817   14.4480 O.2     1  UNL1       -0.1530
     27 N          62.9421   81.6834   14.7189 N.3     1  UNL1       -0.1723
     28 H          63.8678   81.2687   14.6116 H       1  UNL1        0.1491
     29 C          60.6874   80.5018   14.1993 C.3     1  UNL1        0.0278
     30 C          62.0373   80.9789   13.7520 C.3     1  UNL1        0.1701
     31 C          62.4825   80.7514   12.3377 C.3     1  UNL1        0.4118
     32 F          62.9276   80.5240   10.9234 F       1  UNL1       -0.1685
     33 F          62.2046   82.1906   12.0188 F       1  UNL1       -0.1685
     34 F          62.7603   79.3123   12.6566 F       1  UNL1       -0.1685
     35 C          65.7837   92.4565   14.6321 C.2     1  UNL1        0.2699
     36 O          65.7805   93.6485   13.7215 O.2     1  UNL1       -0.2679
     37 N          66.7570   92.3855   15.7712 N.am    1  UNL1       -0.2969
     38 H          66.7592   91.6032   16.3688 H       1  UNL1        0.1499
     39 C          67.7271   93.5065   15.9997 C.3     1  UNL1        0.1166
     40 C          69.1059   93.4365   15.4129 C.3     1  UNL1        0.1064
     41 C          68.7332   92.1775   14.6875 C.3     1  UNL1        0.0311
     42 C          69.4785   94.6955   16.1384 C.3     1  UNL1        0.0311
     43 O          70.4846   93.3665   14.8262 O.3     1  UNL1       -0.3851
     44 H          70.5547   92.5839   14.2575 H       1  UNL1        0.2103
@<TRIPOS>BOND
     1    30    29    1
     2    30    27    1
     3    27    24    1
     4    24    25    2
     5    24    26    2
     6    24    16    1
     7    16    17   ar
     8    17    18   ar
     9    18    19   ar
    10    19     1    1
    11     1     2   ar
    12     2     3   ar
    13     3    35    1
    14    35    36    2
    15    35    37   am
    16    37    39    1
    17    39    40    1
    18    40    41    1
    19    40    42    1
    20    40    43    1
    21     3     4   ar
    22     4     5   ar
    23     5     6    1
    24     6     7    2
    25     6     8   am
    26     8     9    1
    27     9    10    1
    28    10    11    1
    29    11    12    1
    30    11    13    1
    31    13    14    1
    32    14    15    1
    33    19    20   ar
    34    20    21    1
    35    20    22   ar
    36    22    23    1
    37    30    31    1
    38    31    32    1
    39    31    33    1
    40    31    34    1
    41    22    16   ar
    42     5     1   ar
    43    14     8    1
    44    27    28    1
    45    37    38    1
    46    43    44    1
@<TRIPOS>MOLECULE
*****
 44 46 0 0 0
SMALL
GASTEIGER

@<TRIPOS>ATOM
      1 C          60.9035   87.9770    9.4512 C.ar    1  UNL1        0.0539
      2 S          60.4820   88.1254    8.0193 S.2     1  UNL1       -0.0619
      3 C          59.9086   89.5005    7.8449 C.ar    1  UNL1        0.1641
      4 N          59.9757   90.2020    9.1691 N.ar    1  UNL1       -0.2291
      5 C          60.5905   89.2604   10.1618 C.ar    1  UNL1        0.1414
      6 C          60.8473   89.5512   11.6108 C.2     1  UNL1        0.2672
      7 O          59.8295   89.1691   12.6443 O.2     1  UNL1       -0.2682
      8 N          62.1218   90.2241   12.0263 N.am    1  UNL1       -0.2763
      9 C          62.3787   90.5149   13.4753 C.3     1  UNL1        0.0965
     10 C          63.6532   91.1878   13.8907 C.3     1  UNL1        0.0568
     11 C          64.6711   91.5699   12.8573 C.3     1  UNL1        0.1643
     12 F          65.9456   92.2428   13.2728 F       1  UNL1       -0.2372
     13 C          64.4143   91.2791   11.4083 C.3     1  UNL1        0.0551
     14 C          63.1397   90.6062   10.9928 C.3     1  UNL1        0.0785
     15 C          62.8829   90.3154    9.5439 C.3     1  UNL1        0.0216
     16 C          62.7776   84.3233   11.2918 C.ar    1  UNL1        0.1333
     17 C          61.9534   85.2495   12.1360 C.ar    1  UNL1        0.0208
     18 C          61.3287   86.4674   11.5225 C.ar    1  UNL1        0.0028
     19 C          61.5282   86.7591   10.0647 C.ar    1  UNL1        0.0191
     20 C          62.3524   85.8329    9.2205 C.ar    1  UNL1        0.0700
     21 CL         62.5520   86.1245    7.7627 Cl      1  UNL1       -0.0813
     22 C          62.9771   84.6150    9.8341 C.ar    1  UNL1        0.0867
     23 CL         63.8014   83.6887    8.9898 Cl      1  UNL1       -0.0800
     24 S          63.4023   83.1054   11.9054 S.O2    1  UNL1        0.0613
     25 O          62.2023   82.2938   11.5162 O.2     1  UNL1       -0.1530
     26 O          64.6023   83.9169   12.2945 O.2     1  UNL1       -0.1530
     27 N          64.0270   81.8875   12.5189 N.3     1  UNL1       -0.1723
     28 H          63.9797   81.1477   11.8184 H       1  UNL1        0.1491
     29 C          63.4239   79.8312   13.9880 C.3     1  UNL1        0.0278
     30 C          63.4689   81.3174   13.7891 C.3     1  UNL1        0.1701
     31 C          62.9557   82.2333   14.8604 C.3     1  UNL1        0.4118
     32 F          62.4425   83.1492   15.9318 F       1  UNL1       -0.1685
     33 F          61.5595   81.7471   14.6072 F       1  UNL1       -0.1685
     34 F          64.3520   82.7195   15.1136 F       1  UNL1       -0.1685
     35 C          59.3638   90.0734    6.5702 C.2     1  UNL1        0.2699
     36 O          57.9306   89.8389    6.1948 O.2     1  UNL1       -0.2679
     37 N          60.2522   90.8809    5.6710 N.am    1  UNL1       -0.2969
     38 H          61.1929   91.0349    5.9174 H       1  UNL1        0.1499
     39 C          59.7074   91.4539    4.3963 C.3     1  UNL1        0.1166
     40 C          60.6348   92.0890    3.4028 C.3     1  UNL1        0.1064
     41 C          61.7851   91.3243    3.9878 C.3     1  UNL1        0.0311
     42 C          59.4845   92.8537    2.8179 C.3     1  UNL1        0.0311
     43 O          61.5621   92.7240    2.4095 O.3     1  UNL1       -0.3851
     44 H          62.4633   92.3947    2.5520 H       1  UNL1        0.2103
@<TRIPOS>BOND
     1    30    29    1
     2    30    27    1
     3    27    24    1
     4    24    25    2
     5    24    26    2
     6    24    16    1
     7    16    17   ar
     8    17    18   ar
     9    18    19   ar
    10    19     1    1
    11     1     2   ar
    12     2     3   ar
    13     3    35    1
    14    35    36    2
    15    35    37   am
    16    37    39    1
    17    39    40    1
    18    40    41    1
    19    40    42    1
    20    40    43    1
    21     3     4   ar
    22     4     5   ar
    23     5     6    1
    24     6     7    2
    25     6     8   am
    26     8     9    1
    27     9    10    1
    28    10    11    1
    29    11    12    1
    30    11    13    1
    31    13    14    1
    32    14    15    1
    33    19    20   ar
    34    20    21    1
    35    20    22   ar
    36    22    23    1
    37    30    31    1
    38    31    32    1
    39    31    33    1
    40    31    34    1
    41    22    16   ar
    42     5     1   ar
    43    14     8    1
    44    27    28    1
    45    37    38    1
    46    43    44    1
@<TRIPOS>MOLECULE
*****
 44 46 0 0 0
SMALL
GASTEIGER

@<TRIPOS>ATOM
      1 C          63.4203   88.5869   12.6316 C.ar    1  UNL1        0.0539
      2 S          63.9851   87.4906   13.4855 S.2     1  UNL1       -0.0619
      3 C          62.9980   86.3613   13.5029 C.ar    1  UNL1        0.1641
      4 N          61.8231   86.7597   12.6598 N.ar    1  UNL1       -0.2291
      5 C          62.0841   88.1351   12.1213 C.ar    1  UNL1        0.1414
      6 C          61.1695   88.9209   11.2291 C.2     1  UNL1        0.2672
      7 O          60.7341   90.2996   11.6287 O.2     1  UNL1       -0.2682
      8 N          60.6902   88.3280    9.9373 N.am    1  UNL1       -0.2763
      9 C          59.7755   89.1138    9.0451 C.3     1  UNL1        0.0965
     10 C          59.2962   88.5208    7.7533 C.3     1  UNL1        0.0568
     11 C          59.7315   87.1422    7.3537 C.3     1  UNL1        0.1643
     12 F          59.2522   86.5492    6.0619 F       1  UNL1       -0.2372
     13 C          60.6462   86.3563    8.2459 C.3     1  UNL1        0.0551
     14 C          61.1255   86.9493    9.5377 C.3     1  UNL1        0.0785
     15 C          62.0401   86.1635   10.4299 C.3     1  UNL1        0.0216
     16 C          65.3889   92.5373   11.7548 C.ar    1  UNL1        0.1333
     17 C          64.6918   91.7871   10.6588 C.ar    1  UNL1        0.0208
     18 C          64.0356   90.4703   10.9511 C.ar    1  UNL1        0.0028
     19 C          64.0765   89.9037   12.3393 C.ar    1  UNL1        0.0191
     20 C          64.7736   90.6539   13.4353 C.ar    1  UNL1        0.0700
     21 CL         64.8146   90.0873   14.8236 Cl      1  UNL1       -0.0813
     22 C          65.4298   91.9707   13.1430 C.ar    1  UNL1        0.0867
     23 CL         66.1270   92.7209   14.2391 Cl      1  UNL1       -0.0800
     24 S          66.0451   93.8541   11.4625 S.O2    1  UNL1        0.0613
     25 O          67.2132   93.4618   12.3179 O.2     1  UNL1       -0.1530
     26 O          64.8770   94.2463   10.6071 O.2     1  UNL1       -0.1530
     27 N          66.7013   95.1709   11.1702 N.3     1  UNL1       -0.1723
     28 H          66.0066   95.8940   11.3571 H       1  UNL1        0.1491
     29 C          67.3395   96.8555    9.2980 C.3     1  UNL1        0.0278
     30 C          67.2556   95.4457    9.8038 C.3     1  UNL1        0.1701
     31 C          67.7260   94.3109    8.9430 C.3     1  UNL1        0.4118
     32 F          68.1963   93.1761    8.0822 F       1  UNL1       -0.1685
     33 F          66.6295   94.6011    7.9613 F       1  UNL1       -0.1685
     34 F          68.8224   94.0207    9.9247 F       1  UNL1       -0.1685
     35 C          63.1577   85.0619   14.2350 C.2     1  UNL1        0.2699
     36 O          64.0643   84.9792   15.4272 O.2     1  UNL1       -0.2679
     37 N          62.4108   83.8451   13.7749 N.am    1  UNL1       -0.2969
     38 H          61.8158   83.8994   12.9924 H       1  UNL1        0.1499
     39 C          62.5706   82.5457   14.5069 C.3     1  UNL1        0.1166
     40 C          62.5235   81.2496   13.7532 C.3     1  UNL1        0.1064
     41 C          63.9549   81.4351   13.3447 C.3     1  UNL1        0.0311
     42 C          61.0921   81.0641   14.1618 C.3     1  UNL1        0.0311
     43 O          62.4764   79.9535   12.9995 O.3     1  UNL1       -0.3851
     44 H          63.3389   79.7872   12.5880 H       1  UNL1        0.2103
@<TRIPOS>BOND
     1    30    29    1
     2    30    27    1
     3    27    24    1
     4    24    25    2
     5    24    26    2
     6    24    16    1
     7    16    17   ar
     8    17    18   ar
     9    18    19   ar
    10    19     1    1
    11     1     2   ar
    12     2     3   ar
    13     3    35    1
    14    35    36    2
    15    35    37   am
    16    37    39    1
    17    39    40    1
    18    40    41    1
    19    40    42    1
    20    40    43    1
    21     3     4   ar
    22     4     5   ar
    23     5     6    1
    24     6     7    2
    25     6     8   am
    26     8     9    1
    27     9    10    1
    28    10    11    1
    29    11    12    1
    30    11    13    1
    31    13    14    1
    32    14    15    1
    33    19    20   ar
    34    20    21    1
    35    20    22   ar
    36    22    23    1
    37    30    31    1
    38    31    32    1
    39    31    33    1
    40    31    34    1
    41    22    16   ar
    42     5     1   ar
    43    14     8    1
    44    27    28    1
    45    37    38    1
    46    43    44    1
@<TRIPOS>MOLECULE
*****
 44 46 0 0 0
SMALL
GASTEIGER

@<TRIPOS>ATOM
      1 C          63.1417   87.5148   12.6577 C.ar    1  UNL1        0.0539
      2 S          63.6347   86.1141   12.8694 S.2     1  UNL1       -0.0619
      3 C          62.6252   85.1734   12.2813 C.ar    1  UNL1        0.1641
      4 N          61.5081   85.9927   11.7061 N.ar    1  UNL1       -0.2291
      5 C          61.8273   87.4398   11.9387 C.ar    1  UNL1        0.1414
      6 C          60.9808   88.6069   11.5249 C.2     1  UNL1        0.2672
      7 O          60.5752   89.6359   12.5383 O.2     1  UNL1       -0.2682
      8 N          60.5399   88.7451   10.0980 N.am    1  UNL1       -0.2763
      9 C          59.6933   89.9123    9.6842 C.3     1  UNL1        0.0965
     10 C          59.2524   90.0505    8.2572 C.3     1  UNL1        0.0568
     11 C          59.6579   89.0216    7.2438 C.3     1  UNL1        0.1643
     12 F          59.2170   89.1598    5.8168 F       1  UNL1       -0.2372
     13 C          60.5045   87.8544    7.6575 C.3     1  UNL1        0.0551
     14 C          60.9454   87.7162    9.0846 C.3     1  UNL1        0.0785
     15 C          61.7920   86.5491    9.4983 C.3     1  UNL1        0.0216
     16 C          65.2373   91.2808   13.9521 C.ar    1  UNL1        0.1333
     17 C          65.1363   90.1173   14.8934 C.ar    1  UNL1        0.0208
     18 C          64.4377   88.8620   14.4619 C.ar    1  UNL1        0.0028
     19 C          63.8402   88.7702   13.0891 C.ar    1  UNL1        0.0191
     20 C          63.9412   89.9336   12.1479 C.ar    1  UNL1        0.0700
     21 CL         63.3437   89.8418   10.7750 Cl      1  UNL1       -0.0813
     22 C          64.6398   91.1890   12.5793 C.ar    1  UNL1        0.0867
     23 CL         64.7408   92.3525   11.6380 Cl      1  UNL1       -0.0800
     24 S          65.9359   92.5362   14.3835 S.O2    1  UNL1        0.0613
     25 O          66.8526   92.4325   13.2008 O.2     1  UNL1       -0.1530
     26 O          65.0191   92.6398   15.5663 O.2     1  UNL1       -0.1530
     27 N          66.6344   93.7915   14.8150 N.3     1  UNL1       -0.1723
     28 H          66.7746   94.3538   13.9756 H       1  UNL1        0.1491
     29 C          68.7401   94.9623   15.7873 C.3     1  UNL1        0.0278
     30 C          67.9619   93.7106   15.5086 C.3     1  UNL1        0.1701
     31 C          68.5113   92.3779   15.9236 C.3     1  UNL1        0.4118
     32 F          69.0607   91.0452   16.3385 F       1  UNL1       -0.1685
     33 F          67.5325   92.3279   17.0591 F       1  UNL1       -0.1685
     34 F          69.4901   92.4278   14.7880 F       1  UNL1       -0.1685
     35 C          62.7167   83.6762   12.2704 C.2     1  UNL1        0.2699
     36 O          62.3213   82.9096   11.0432 O.2     1  UNL1       -0.2679
     37 N          63.2035   82.9457   13.4866 N.am    1  UNL1       -0.2969
     38 H          63.4630   83.4489   14.2921 H       1  UNL1        0.1499
     39 C          63.2950   81.4485   13.4757 C.3     1  UNL1        0.1166
     40 C          62.0548   80.6202   13.6367 C.3     1  UNL1        0.1064
     41 C          62.6154   79.5975   12.6934 C.3     1  UNL1        0.0311
     42 C          61.4941   81.6430   14.5799 C.3     1  UNL1        0.0311
     43 O          60.8146   79.7919   13.7976 O.3     1  UNL1       -0.3851
     44 H          60.8890   78.9898   13.2572 H       1  UNL1        0.2103
@<TRIPOS>BOND
     1    30    29    1
     2    30    27    1
     3    27    24    1
     4    24    25    2
     5    24    26    2
     6    24    16    1
     7    16    17   ar
     8    17    18   ar
     9    18    19   ar
    10    19     1    1
    11     1     2   ar
    12     2     3   ar
    13     3    35    1
    14    35    36    2
    15    35    37   am
    16    37    39    1
    17    39    40    1
    18    40    41    1
    19    40    42    1
    20    40    43    1
    21     3     4   ar
    22     4     5   ar
    23     5     6    1
    24     6     7    2
    25     6     8   am
    26     8     9    1
    27     9    10    1
    28    10    11    1
    29    11    12    1
    30    11    13    1
    31    13    14    1
    32    14    15    1
    33    19    20   ar
    34    20    21    1
    35    20    22   ar
    36    22    23    1
    37    30    31    1
    38    31    32    1
    39    31    33    1
    40    31    34    1
    41    22    16   ar
    42     5     1   ar
    43    14     8    1
    44    27    28    1
    45    37    38    1
    46    43    44    1
