@<TRIPOS>MOLECULE
*****
 23 26 0 0 0
SMALL
GASTEIGER

@<TRIPOS>ATOM
      1 C          59.3820   89.0135    7.2442 C.ar    1  UNL1       -0.0209
      2 C          59.2788   87.5177    7.2897 C.ar    1  UNL1       -0.0041
      3 C          60.0055   86.7478    8.3523 C.ar    1  UNL1        0.0048
      4 C          60.8353   87.4735    9.3695 C.ar    1  UNL1        0.0623
      5 C          60.9384   88.9693    9.3240 C.ar    1  UNL1        0.0771
      6 C          60.2118   89.7392    8.2614 C.ar    1  UNL1        0.0125
      7 N          61.7682   89.6951   10.3412 N.am    1  UNL1       -0.1721
      8 C          62.4949   88.9252   11.4038 C.2     1  UNL1        0.3160
      9 O          63.3247   89.6509   12.4210 O.2     1  UNL1       -0.2638
     10 C          62.3917   87.4293   11.4493 C.2     1  UNL1        0.2907
     11 N          62.9905   86.4096   12.3720 N.2     1  UNL1       -0.0256
     12 C          62.5307   85.0535   11.9251 C.2     1  UNL1        0.3765
     13 N          61.6478   85.2352   10.7262 N.2     1  UNL1       -0.0302
     14 C          61.5619   86.7036   10.4321 C.2     1  UNL1        0.2419
     15 C          62.8907   83.7454   12.5649 C.ar    1  UNL1        0.0989
     16 C          62.3091   83.3771   13.8976 C.ar    1  UNL1        0.0085
     17 C          62.6691   82.0690   14.5373 C.ar    1  UNL1        0.0003
     18 C          63.6107   81.1292   13.8443 C.ar    1  UNL1        0.0009
     19 C          64.1923   81.4975   12.5117 C.ar    1  UNL1        0.0116
     20 C          63.8323   82.8056   11.8719 C.ar    1  UNL1        0.0651
     21 CL         64.4138   83.1739   10.5392 Cl      1  UNL1       -0.0820
     22 C          59.3653   90.8629    5.4196 C.3     1  UNL1        0.0050
     23 C          58.6554   89.7834    6.1816 C.3     1  UNL1        0.0264
@<TRIPOS>BOND
     1    22    23    1
     2    23     1    1
     3     1     2   ar
     4     2     3   ar
     5     3     4   ar
     6     4     5   ar
     7     5     6   ar
     8     5     7    2
     9     7     8    1
    10     8     9    2
    11     8    10    1
    12    10    11    2
    13    11    12    1
    14    12    15    1
    15    15    16   ar
    16    16    17   ar
    17    17    18   ar
    18    18    19   ar
    19    19    20   ar
    20    20    21    1
    21    12    13    2
    22    13    14    1
    23     6     1   ar
    24    14    10    1
    25    14     4    2
    26    20    15   ar
@<TRIPOS>MOLECULE
*****
 23 26 0 0 0
SMALL
GASTEIGER

@<TRIPOS>ATOM
      1 C          63.0292   82.3721   12.5230 C.ar    1  UNL1       -0.0209
      2 C          63.7807   82.9220   13.6990 C.ar    1  UNL1       -0.0041
      3 C          63.9284   84.4051   13.8677 C.ar    1  UNL1        0.0048
      4 C          63.3248   85.3384   12.8604 C.ar    1  UNL1        0.0623
      5 C          62.5734   84.7885   11.6845 C.ar    1  UNL1        0.0771
      6 C          62.4256   83.3054   11.5157 C.ar    1  UNL1        0.0125
      7 N          61.9697   85.7218   10.6771 N.am    1  UNL1       -0.1721
      8 C          62.1174   87.2049   10.8458 C.2     1  UNL1        0.3160
      9 O          61.5138   88.1381    9.8386 O.2     1  UNL1       -0.2638
     10 C          62.8689   87.7548   12.0219 C.2     1  UNL1        0.2907
     11 N          63.1761   89.1595   12.4489 N.2     1  UNL1       -0.0256
     12 C          63.9696   89.0944   13.7202 C.2     1  UNL1        0.3765
     13 N          64.1529   87.6494   14.0788 N.2     1  UNL1       -0.0302
     14 C          63.4726   86.8215   13.0291 C.2     1  UNL1        0.2419
     15 C          64.4888   90.2682   14.4966 C.ar    1  UNL1        0.0989
     16 C          65.5610   91.1391   13.9119 C.ar    1  UNL1        0.0085
     17 C          66.0801   92.3129   14.6883 C.ar    1  UNL1        0.0003
     18 C          65.5270   92.6157   16.0493 C.ar    1  UNL1        0.0009
     19 C          64.4549   91.7448   16.6340 C.ar    1  UNL1        0.0116
     20 C          63.9357   90.5710   15.8576 C.ar    1  UNL1        0.0651
     21 CL         62.8635   89.7000   16.4422 Cl      1  UNL1       -0.0820
     22 C          62.2395   80.0714   13.4357 C.3     1  UNL1        0.0050
     23 C          62.8814   80.8890   12.3543 C.3     1  UNL1        0.0264
@<TRIPOS>BOND
     1    22    23    1
     2    23     1    1
     3     1     2   ar
     4     2     3   ar
     5     3     4   ar
     6     4     5   ar
     7     5     6   ar
     8     5     7    2
     9     7     8    1
    10     8     9    2
    11     8    10    1
    12    10    11    2
    13    11    12    1
    14    12    15    1
    15    15    16   ar
    16    16    17   ar
    17    17    18   ar
    18    18    19   ar
    19    19    20   ar
    20    20    21    1
    21    12    13    2
    22    13    14    1
    23     6     1   ar
    24    14    10    1
    25    14     4    2
    26    20    15   ar
@<TRIPOS>MOLECULE
*****
 23 26 0 0 0
SMALL
GASTEIGER

@<TRIPOS>ATOM
      1 C          60.2303   88.1624    8.9867 C.ar    1  UNL1       -0.0209
      2 C          60.7416   89.5652    9.1311 C.ar    1  UNL1       -0.0041
      3 C          61.7254   89.8972   10.2136 C.ar    1  UNL1        0.0048
      4 C          62.1980   88.8265   11.1518 C.ar    1  UNL1        0.0623
      5 C          61.6867   87.4237   11.0074 C.ar    1  UNL1        0.0771
      6 C          60.7029   87.0917    9.9248 C.ar    1  UNL1        0.0125
      7 N          62.1593   86.3529   11.9455 N.am    1  UNL1       -0.1721
      8 C          63.1431   86.6849   13.0281 C.2     1  UNL1        0.3160
      9 O          63.6157   85.6142   13.9662 O.2     1  UNL1       -0.2638
     10 C          63.6543   88.0877   13.1724 C.2     1  UNL1        0.2907
     11 N          64.6213   88.7093   14.1360 N.2     1  UNL1       -0.0256
     12 C          64.7463   90.1644   13.7934 C.2     1  UNL1        0.3765
     13 N          63.8567   90.4419   12.6181 N.2     1  UNL1       -0.0302
     14 C          63.1818   89.1585   12.2343 C.2     1  UNL1        0.2419
     15 C          65.6095   91.1659   14.5018 C.ar    1  UNL1        0.0989
     16 C          66.9275   91.5711   13.9112 C.ar    1  UNL1        0.0085
     17 C          67.7906   92.5726   14.6196 C.ar    1  UNL1        0.0003
     18 C          67.3358   93.1690   15.9186 C.ar    1  UNL1        0.0009
     19 C          66.0178   92.7639   16.5093 C.ar    1  UNL1        0.0116
     20 C          65.1547   91.7624   15.8009 C.ar    1  UNL1        0.0651
     21 CL         63.8367   91.3572   16.3915 Cl      1  UNL1       -0.0820
     22 C          59.0936   86.4127    7.4387 C.3     1  UNL1        0.0050
     23 C          59.2465   87.8304    7.9041 C.3     1  UNL1        0.0264
@<TRIPOS>BOND
     1    22    23    1
     2    23     1    1
     3     1     2   ar
     4     2     3   ar
     5     3     4   ar
     6     4     5   ar
     7     5     6   ar
     8     5     7    2
     9     7     8    1
    10     8     9    2
    11     8    10    1
    12    10    11    2
    13    11    12    1
    14    12    15    1
    15    15    16   ar
    16    16    17   ar
    17    17    18   ar
    18    18    19   ar
    19    19    20   ar
    20    20    21    1
    21    12    13    2
    22    13    14    1
    23     6     1   ar
    24    14    10    1
    25    14     4    2
    26    20    15   ar
@<TRIPOS>MOLECULE
*****
 23 26 0 0 0
SMALL
GASTEIGER

@<TRIPOS>ATOM
      1 C          62.6782   82.0522   13.5581 C.ar    1  UNL1       -0.0209
      2 C          63.2341   82.9398   12.4844 C.ar    1  UNL1       -0.0041
      3 C          63.5316   84.3798   12.7810 C.ar    1  UNL1        0.0048
      4 C          63.2730   84.9322   14.1514 C.ar    1  UNL1        0.0623
      5 C          62.7171   84.0446   15.2251 C.ar    1  UNL1        0.0771
      6 C          62.4196   82.6046   14.9285 C.ar    1  UNL1        0.0125
      7 N          62.4585   84.5970   16.5956 N.am    1  UNL1       -0.1721
      8 C          62.7559   86.0369   16.8922 C.2     1  UNL1        0.3160
      9 O          62.4974   86.5893   18.2626 O.2     1  UNL1       -0.2638
     10 C          63.3119   86.9245   15.8184 C.2     1  UNL1        0.2907
     11 N          63.7006   88.3733   15.8152 N.2     1  UNL1       -0.0256
     12 C          64.1995   88.7163   14.4427 C.2     1  UNL1        0.3765
     13 N          64.1190   87.4795   13.5978 N.2     1  UNL1       -0.0302
     14 C          63.5705   86.3722   14.4480 C.2     1  UNL1        0.2419
     15 C          64.6922   90.0602   13.9941 C.ar    1  UNL1        0.0989
     16 C          65.7682   90.7615   14.7689 C.ar    1  UNL1        0.0085
     17 C          66.2608   92.1053   14.3202 C.ar    1  UNL1        0.0003
     18 C          65.6776   92.7478   13.0967 C.ar    1  UNL1        0.0009
     19 C          64.6016   92.0465   12.3218 C.ar    1  UNL1        0.0116
     20 C          64.1089   90.7027   12.7705 C.ar    1  UNL1        0.0651
     21 CL         63.0329   90.0012   11.9957 Cl      1  UNL1       -0.0820
     22 C          62.7269   80.0357   11.9207 C.3     1  UNL1        0.0050
     23 C          62.3807   80.6122   13.2615 C.3     1  UNL1        0.0264
@<TRIPOS>BOND
     1    22    23    1
     2    23     1    1
     3     1     2   ar
     4     2     3   ar
     5     3     4   ar
     6     4     5   ar
     7     5     6   ar
     8     5     7    2
     9     7     8    1
    10     8     9    2
    11     8    10    1
    12    10    11    2
    13    11    12    1
    14    12    15    1
    15    15    16   ar
    16    16    17   ar
    17    17    18   ar
    18    18    19   ar
    19    19    20   ar
    20    20    21    1
    21    12    13    2
    22    13    14    1
    23     6     1   ar
    24    14    10    1
    25    14     4    2
    26    20    15   ar
@<TRIPOS>MOLECULE
*****
 23 26 0 0 0
SMALL
GASTEIGER

@<TRIPOS>ATOM
      1 C          63.0884   83.2583   13.9248 C.ar    1  UNL1       -0.0209
      2 C          64.0489   84.0006   14.8058 C.ar    1  UNL1       -0.0041
      3 C          64.2793   85.4678   14.5954 C.ar    1  UNL1        0.0048
      4 C          63.5492   86.1926   13.5038 C.ar    1  UNL1        0.0623
      5 C          62.5886   85.4503   12.6228 C.ar    1  UNL1        0.0771
      6 C          62.3582   83.9831   12.8333 C.ar    1  UNL1        0.0125
      7 N          61.8584   86.1751   11.5312 N.am    1  UNL1       -0.1721
      8 C          62.0888   87.6423   11.3207 C.2     1  UNL1        0.3160
      9 O          61.3587   88.3671   10.2292 O.2     1  UNL1       -0.2638
     10 C          63.0494   88.3846   12.2018 C.2     1  UNL1        0.2907
     11 N          63.4777   89.8218   12.2327 N.2     1  UNL1       -0.0256
     12 C          64.4726   89.9853   13.3433 C.2     1  UNL1        0.3765
     13 N          64.6591   88.6490   13.9988 N.2     1  UNL1       -0.0302
     14 C          63.7796   87.6598   13.2933 C.2     1  UNL1        0.2419
     15 C          65.1602   91.2610   13.7305 C.ar    1  UNL1        0.0989
     16 C          65.5529   91.4978   15.1586 C.ar    1  UNL1        0.0085
     17 C          66.2404   92.7734   15.5457 C.ar    1  UNL1        0.0003
     18 C          66.5353   93.8123   14.5046 C.ar    1  UNL1        0.0009
     19 C          66.1425   93.5755   13.0765 C.ar    1  UNL1        0.0116
     20 C          65.4550   92.2999   12.6894 C.ar    1  UNL1        0.0651
     21 CL         65.0622   92.0630   11.2612 Cl      1  UNL1       -0.0820
     22 C          61.4627   81.2409   14.1176 C.3     1  UNL1        0.0050
     23 C          62.8580   81.7911   14.1353 C.3     1  UNL1        0.0264
@<TRIPOS>BOND
     1    22    23    1
     2    23     1    1
     3     1     2   ar
     4     2     3   ar
     5     3     4   ar
     6     4     5   ar
     7     5     6   ar
     8     5     7    2
     9     7     8    1
    10     8     9    2
    11     8    10    1
    12    10    11    2
    13    11    12    1
    14    12    15    1
    15    15    16   ar
    16    16    17   ar
    17    17    18   ar
    18    18    19   ar
    19    19    20   ar
    20    20    21    1
    21    12    13    2
    22    13    14    1
    23     6     1   ar
    24    14    10    1
    25    14     4    2
    26    20    15   ar
@<TRIPOS>MOLECULE
*****
 23 26 0 0 0
SMALL
GASTEIGER

@<TRIPOS>ATOM
      1 C          62.4596   89.4594   10.9935 C.ar    1  UNL1       -0.0209
      2 C          62.0372   88.4238    9.9940 C.ar    1  UNL1       -0.0041
      3 C          62.2104   86.9667   10.3051 C.ar    1  UNL1        0.0048
      4 C          62.8059   86.5452   11.6157 C.ar    1  UNL1        0.0623
      5 C          63.2283   87.5808   12.6151 C.ar    1  UNL1        0.0771
      6 C          63.0551   89.0379   12.3040 C.ar    1  UNL1        0.0125
      7 N          63.8238   87.1593   13.9258 N.am    1  UNL1       -0.1721
      8 C          63.9970   85.7022   14.2369 C.2     1  UNL1        0.3160
      9 O          64.5925   85.2807   15.5475 O.2     1  UNL1       -0.2638
     10 C          63.5746   84.6665   13.2374 C.2     1  UNL1        0.2907
     11 N          63.6217   83.1676   13.2644 N.2     1  UNL1       -0.0256
     12 C          63.0554   82.6626   11.9705 C.2     1  UNL1        0.3765
     13 N          62.6581   83.8495   11.1438 N.2     1  UNL1       -0.0302
     14 C          62.9790   85.0880   11.9268 C.2     1  UNL1        0.2419
     15 C          62.9114   81.2233   11.5731 C.ar    1  UNL1        0.0989
     16 C          63.1411   80.8119   10.1490 C.ar    1  UNL1        0.0085
     17 C          62.9972   79.3727    9.7517 C.ar    1  UNL1        0.0003
     18 C          62.6236   78.3449   10.7783 C.ar    1  UNL1        0.0009
     19 C          62.3940   78.7563   12.2024 C.ar    1  UNL1        0.0116
     20 C          62.5379   80.1955   12.5997 C.ar    1  UNL1        0.0651
     21 CL         62.3082   80.6070   14.0238 Cl      1  UNL1       -0.0820
     22 C          63.4577   91.7275   10.2128 C.3     1  UNL1        0.0050
     23 C          62.2865   90.9166   10.6823 C.3     1  UNL1        0.0264
@<TRIPOS>BOND
     1    22    23    1
     2    23     1    1
     3     1     2   ar
     4     2     3   ar
     5     3     4   ar
     6     4     5   ar
     7     5     6   ar
     8     5     7    2
     9     7     8    1
    10     8     9    2
    11     8    10    1
    12    10    11    2
    13    11    12    1
    14    12    15    1
    15    15    16   ar
    16    16    17   ar
    17    17    18   ar
    18    18    19   ar
    19    19    20   ar
    20    20    21    1
    21    12    13    2
    22    13    14    1
    23     6     1   ar
    24    14    10    1
    25    14     4    2
    26    20    15   ar
@<TRIPOS>MOLECULE
*****
 23 26 0 0 0
SMALL
GASTEIGER

@<TRIPOS>ATOM
      1 C          62.8947   80.8480   12.2422 C.ar    1  UNL1       -0.0209
      2 C          62.7866   81.8281   11.1119 C.ar    1  UNL1       -0.0041
      3 C          62.9316   83.2974   11.3769 C.ar    1  UNL1        0.0048
      4 C          63.1846   83.7865   12.7721 C.ar    1  UNL1        0.0623
      5 C          63.2927   82.8064   13.9024 C.ar    1  UNL1        0.0771
      6 C          63.1477   81.3371   13.6374 C.ar    1  UNL1        0.0125
      7 N          63.5457   83.2955   15.2977 N.am    1  UNL1       -0.1721
      8 C          63.6907   84.7648   15.5626 C.2     1  UNL1        0.3160
      9 O          63.9437   85.2539   16.9579 O.2     1  UNL1       -0.2638
     10 C          63.5826   85.7449   14.4323 C.2     1  UNL1        0.2907
     11 N          63.6811   87.2410   14.3884 N.2     1  UNL1       -0.0256
     12 C          63.4888   87.6766   12.9659 C.2     1  UNL1        0.3765
     13 N          63.2716   86.4497   12.1308 N.2     1  UNL1       -0.0302
     14 C          63.3296   85.2558   13.0371 C.2     1  UNL1        0.2419
     15 C          63.5101   89.0908   12.4663 C.ar    1  UNL1        0.0989
     16 C          62.8058   89.4463   11.1906 C.ar    1  UNL1        0.0085
     17 C          62.8271   90.8605   10.6911 C.ar    1  UNL1        0.0003
     18 C          63.5528   91.9192   11.4672 C.ar    1  UNL1        0.0009
     19 C          64.2571   91.5637   12.7429 C.ar    1  UNL1        0.0116
     20 C          64.2358   90.1496   13.2425 C.ar    1  UNL1        0.0651
     21 CL         64.9402   89.7940   14.5182 Cl      1  UNL1       -0.0820
     22 C          62.7482   78.8675   10.5671 C.3     1  UNL1        0.0050
     23 C          62.7497   79.3787   11.9772 C.3     1  UNL1        0.0264
@<TRIPOS>BOND
     1    22    23    1
     2    23     1    1
     3     1     2   ar
     4     2     3   ar
     5     3     4   ar
     6     4     5   ar
     7     5     6   ar
     8     5     7    2
     9     7     8    1
    10     8     9    2
    11     8    10    1
    12    10    11    2
    13    11    12    1
    14    12    15    1
    15    15    16   ar
    16    16    17   ar
    17    17    18   ar
    18    18    19   ar
    19    19    20   ar
    20    20    21    1
    21    12    13    2
    22    13    14    1
    23     6     1   ar
    24    14    10    1
    25    14     4    2
    26    20    15   ar
@<TRIPOS>MOLECULE
*****
 23 26 0 0 0
SMALL
GASTEIGER

@<TRIPOS>ATOM
      1 C          63.1443   80.7527   10.6619 C.ar    1  UNL1       -0.0209
      2 C          63.4774   82.0175    9.9277 C.ar    1  UNL1       -0.0041
      3 C          63.5667   83.3161   10.6731 C.ar    1  UNL1        0.0048
      4 C          63.3229   83.3499   12.1527 C.ar    1  UNL1        0.0623
      5 C          62.9898   82.0851   12.8869 C.ar    1  UNL1        0.0771
      6 C          62.9005   80.7864   12.1415 C.ar    1  UNL1        0.0125
      7 N          62.7460   82.1188   14.3667 N.am    1  UNL1       -0.1721
      8 C          62.8354   83.4174   15.1121 C.2     1  UNL1        0.3160
      9 O          62.5916   83.4511   16.5917 O.2     1  UNL1       -0.2638
     10 C          63.1685   84.6823   14.3778 C.2     1  UNL1        0.2907
     11 N          63.3251   86.1002   14.8412 N.2     1  UNL1       -0.0256
     12 C          63.6657   86.9429   13.6479 C.2     1  UNL1        0.3765
     13 N          63.7195   86.0457   12.4470 N.2     1  UNL1       -0.0302
     14 C          63.4123   84.6485   12.8981 C.2     1  UNL1        0.2419
     15 C          63.9096   88.4230   13.6543 C.ar    1  UNL1        0.0989
     16 C          64.6754   89.0520   14.7803 C.ar    1  UNL1        0.0085
     17 C          64.9193   90.5320   14.7867 C.ar    1  UNL1        0.0003
     18 C          64.3973   91.3830   13.6672 C.ar    1  UNL1        0.0009
     19 C          63.6314   90.7540   12.5412 C.ar    1  UNL1        0.0116
     20 C          63.3876   89.2740   12.5348 C.ar    1  UNL1        0.0651
     21 CL         62.6217   88.6449   11.4088 Cl      1  UNL1       -0.0820
     22 C          62.6093   78.2105   10.6271 C.3     1  UNL1        0.0050
     23 C          63.0549   79.4541    9.9165 C.3     1  UNL1        0.0264
@<TRIPOS>BOND
     1    22    23    1
     2    23     1    1
     3     1     2   ar
     4     2     3   ar
     5     3     4   ar
     6     4     5   ar
     7     5     6   ar
     8     5     7    2
     9     7     8    1
    10     8     9    2
    11     8    10    1
    12    10    11    2
    13    11    12    1
    14    12    15    1
    15    15    16   ar
    16    16    17   ar
    17    17    18   ar
    18    18    19   ar
    19    19    20   ar
    20    20    21    1
    21    12    13    2
    22    13    14    1
    23     6     1   ar
    24    14    10    1
    25    14     4    2
    26    20    15   ar
