@<TRIPOS>MOLECULE
*****
 38 42 0 0 0
SMALL
GASTEIGER

@<TRIPOS>ATOM
      1 C          63.5334   88.2651   15.6643 C.3     1  UNL1        0.2246
      2 C          63.7764   86.7906   15.5350 C.2     1  UNL1        0.0436
      3 C          63.5437   85.8864   16.7091 C.2     1  UNL1        0.0288
      4 C          63.0680   86.4567   18.0123 C.2     1  UNL1        0.0896
      5 N          62.8249   87.9312   18.1416 N.am    1  UNL1       -0.1770
      6 C          63.0576   88.8354   16.9675 C.2     1  UNL1        0.2627
      7 O          62.8146   90.3099   17.0968 O.2     1  UNL1       -0.2719
      8 C          62.0214   90.0698   10.2290 C.3     1  UNL1        0.0312
      9 C          63.1735   90.7069   10.9481 C.2     1  UNL1        0.0136
     10 C          63.9510   91.8085   10.2909 C.2     1  UNL1        0.0107
     11 C          65.1030   92.4455   11.0098 C.2     1  UNL1        0.0509
     12 C          65.4776   91.9809   12.3861 C.2     1  UNL1        0.0613
     13 C          64.7001   90.8793   13.0433 C.2     1  UNL1        0.2246
     14 N          64.8348   90.2162   14.3820 N.2     1  UNL1       -0.0378
     15 C          63.7660   89.1694   14.4903 C.2     1  UNL1        0.3605
     16 N          62.9707   89.1854   13.2186 N.2     1  UNL1       -0.0547
     17 C          63.5480   90.2423   12.3242 C.3     1  UNL1        0.2976
     18 N          65.8806   93.5472   10.3526 N.pl3   1  UNL1       -0.3073
     19 C          67.1790   93.2424    9.6662 C.3     1  UNL1        0.0933
     20 C          67.9566   94.3440    9.0090 C.3     1  UNL1        0.0507
     21 C          67.4356   95.7504    9.0382 C.3     1  UNL1        0.1139
     22 O          68.2131   96.8520    8.3811 O.3     1  UNL1       -0.3843
     23 C          66.1371   96.0551    9.7246 C.3     1  UNL1        0.0507
     24 C          65.3596   94.9535   10.3818 C.3     1  UNL1        0.0933
     25 H          67.7402   97.6917    8.4913 H       1  UNL1        0.2103
     26 N          64.2521   86.2202   14.2318 N.pl3   1  UNL1       -0.3329
     27 H          64.6530   86.8103   13.5534 H       1  UNL1        0.1466
     28 C          64.1170   84.7509   13.9623 C.3     1  UNL1        0.1211
     29 C          62.9679   84.2411   13.1439 C.3     1  UNL1        0.1522
     30 O          62.0018   85.2067   12.5242 O.3     1  UNL1       -0.3783
     31 H          62.2624   86.1137   12.7486 H       1  UNL1        0.2109
     32 C          62.7849   82.7656   12.9454 C.ar    1  UNL1        0.0067
     33 C          62.4036   81.8943   14.1053 C.ar    1  UNL1       -0.0018
     34 C          62.2206   80.4188   13.9067 C.ar    1  UNL1        0.0006
     35 C          62.4190   79.8145   12.5482 C.ar    1  UNL1        0.0114
     36 C          62.8004   80.6858   11.3883 C.ar    1  UNL1        0.0574
     37 CL         62.9988   80.0816   10.0298 Cl      1  UNL1       -0.0823
     38 C          62.9834   82.1613   11.5869 C.ar    1  UNL1        0.0095
@<TRIPOS>BOND
     1     8     9    1
     2     9    10    2
     3    10    11    1
     4    11    18    1
     5    18    19    1
     6    19    20    1
     7    20    21    1
     8    21    22    1
     9    21    23    1
    10    23    24    1
    11    11    12    2
    12    12    13    1
    13    13    14    2
    14    14    15    1
    15    15     1    1
    16     1     2    1
    17     2    26    1
    18    26    28    1
    19    28    29    1
    20    29    30    1
    21    29    32    1
    22    32    33   ar
    23    33    34   ar
    24    34    35   ar
    25    35    36   ar
    26    36    37    1
    27    36    38   ar
    28     2     3    2
    29     3     4    1
    30     4     5    2
    31     5     6    1
    32     6     7    2
    33    15    16    2
    34    16    17    1
    35    17     9    1
    36    24    18    1
    37    17    13    1
    38     6     1    1
    39    38    32   ar
    40    22    25    1
    41    26    27    1
    42    30    31    1
@<TRIPOS>MOLECULE
*****
 38 42 0 0 0
SMALL
GASTEIGER

@<TRIPOS>ATOM
      1 C          61.2496   87.9884    9.8810 C.3     1  UNL1        0.2246
      2 C          61.1265   86.5176    9.6131 C.2     1  UNL1        0.0436
      3 C          60.1897   86.0249    8.5502 C.2     1  UNL1        0.0288
      4 C          59.3761   87.0027    7.7553 C.2     1  UNL1        0.0896
      5 N          59.4992   88.4734    8.0233 N.am    1  UNL1       -0.1770
      6 C          60.4360   88.9662    9.0862 C.2     1  UNL1        0.2627
      7 O          60.5592   90.4369    9.3541 O.2     1  UNL1       -0.2719
      8 C          63.9939   87.1441   15.0619 C.3     1  UNL1        0.0312
      9 C          64.2165   88.4052   14.2808 C.2     1  UNL1        0.0136
     10 C          65.1391   89.4626   14.8107 C.2     1  UNL1        0.0107
     11 C          65.3617   90.7237   14.0298 C.2     1  UNL1        0.0509
     12 C          64.6618   90.9275   12.7188 C.2     1  UNL1        0.0613
     13 C          63.7392   89.8701   12.1889 C.2     1  UNL1        0.2246
     14 N          62.9171   89.7912   10.9367 N.2     1  UNL1       -0.0378
     15 C          62.1864   88.4812   10.9439 C.2     1  UNL1        0.3605
     16 N          62.5569   87.7506   12.2004 N.2     1  UNL1       -0.0547
     17 C          63.5166   88.6090   12.9699 C.3     1  UNL1        0.2976
     18 N          66.2843   91.7811   14.5597 N.pl3   1  UNL1       -0.3073
     19 C          67.3185   91.4278   15.5871 C.3     1  UNL1        0.0933
     20 C          68.2411   92.4851   16.1171 C.3     1  UNL1        0.0507
     21 C          68.1295   93.8958   15.6196 C.3     1  UNL1        0.1139
     22 O          69.0520   94.9532   16.1495 O.3     1  UNL1       -0.3843
     23 C          67.0952   94.2491   14.5922 C.3     1  UNL1        0.0507
     24 C          66.1727   93.1918   14.0623 C.3     1  UNL1        0.0933
     25 H          68.8475   95.8020   15.7269 H       1  UNL1        0.2103
     26 N          61.9400   85.5397   10.4079 N.pl3   1  UNL1       -0.3329
     27 H          61.7327   85.3842   11.3577 H       1  UNL1        0.1466
     28 C          63.0694   84.7987    9.7556 C.3     1  UNL1        0.1211
     29 C          63.7114   83.6399   10.4592 C.3     1  UNL1        0.1522
     30 O          64.7072   82.7820    9.7364 O.3     1  UNL1       -0.3783
     31 H          64.8203   83.1108    8.8308 H       1  UNL1        0.2109
     32 C          63.3578   83.3391   11.8855 C.ar    1  UNL1        0.0067
     33 C          63.9677   84.1432   12.9951 C.ar    1  UNL1       -0.0018
     34 C          63.6140   83.8423   14.4214 C.ar    1  UNL1        0.0006
     35 C          62.6503   82.7373   14.7382 C.ar    1  UNL1        0.0114
     36 C          62.0404   81.9332   13.6285 C.ar    1  UNL1        0.0574
     37 CL         61.0767   80.8283   13.9453 Cl      1  UNL1       -0.0823
     38 C          62.3941   82.2341   12.2022 C.ar    1  UNL1        0.0095
@<TRIPOS>BOND
     1     8     9    1
     2     9    10    2
     3    10    11    1
     4    11    18    1
     5    18    19    1
     6    19    20    1
     7    20    21    1
     8    21    22    1
     9    21    23    1
    10    23    24    1
    11    11    12    2
    12    12    13    1
    13    13    14    2
    14    14    15    1
    15    15     1    1
    16     1     2    1
    17     2    26    1
    18    26    28    1
    19    28    29    1
    20    29    30    1
    21    29    32    1
    22    32    33   ar
    23    33    34   ar
    24    34    35   ar
    25    35    36   ar
    26    36    37    1
    27    36    38   ar
    28     2     3    2
    29     3     4    1
    30     4     5    2
    31     5     6    1
    32     6     7    2
    33    15    16    2
    34    16    17    1
    35    17     9    1
    36    24    18    1
    37    17    13    1
    38     6     1    1
    39    38    32   ar
    40    22    25    1
    41    26    27    1
    42    30    31    1
@<TRIPOS>MOLECULE
*****
 38 42 0 0 0
SMALL
GASTEIGER

@<TRIPOS>ATOM
      1 C          64.1409   90.0799   15.0069 C.3     1  UNL1        0.2246
      2 C          65.0210   91.1662   14.4633 C.2     1  UNL1        0.0436
      3 C          65.3592   92.3539   15.3149 C.2     1  UNL1        0.0288
      4 C          64.8174   92.4553   16.7099 C.2     1  UNL1        0.0896
      5 N          63.9373   91.3691   17.2535 N.am    1  UNL1       -0.1770
      6 C          63.5991   90.1814   16.4019 C.2     1  UNL1        0.2627
      7 O          62.7190   89.0952   16.9455 O.2     1  UNL1       -0.2719
      8 C          61.9583   87.8655    9.9654 C.3     1  UNL1        0.0312
      9 C          62.4738   86.9508   11.0366 C.2     1  UNL1        0.0136
     10 C          62.4386   85.4648   10.8349 C.2     1  UNL1        0.0107
     11 C          62.9539   84.5501   11.9061 C.2     1  UNL1        0.0509
     12 C          63.5046   85.1213   13.1791 C.2     1  UNL1        0.0613
     13 C          63.5399   86.6072   13.3809 C.2     1  UNL1        0.2246
     14 N          64.0208   87.4541   14.5217 N.2     1  UNL1       -0.0378
     15 C          63.8027   88.8922   14.1555 C.2     1  UNL1        0.3605
     16 N          63.1868   88.9342   12.7884 N.2     1  UNL1       -0.0547
     17 C          63.0244   87.5220   12.3096 C.3     1  UNL1        0.2976
     18 N          62.9187   83.0641   11.7043 N.pl3   1  UNL1       -0.3073
     19 C          62.4275   82.1694   12.8035 C.3     1  UNL1        0.0933
     20 C          62.3923   80.6835   12.6018 C.3     1  UNL1        0.0507
     21 C          62.8483   80.0922   11.3008 C.3     1  UNL1        0.1139
     22 O          62.8131   78.6063   11.0990 O.3     1  UNL1       -0.3843
     23 C          63.3395   80.9869   10.2016 C.3     1  UNL1        0.0507
     24 C          63.3747   82.4728   10.4034 C.3     1  UNL1        0.0933
     25 H          63.1389   78.3928   10.2107 H       1  UNL1        0.2103
     26 N          65.5629   91.0648   13.0684 N.pl3   1  UNL1       -0.3329
     27 H          66.1997   90.3500   12.8384 H       1  UNL1        0.1466
     28 C          65.1346   92.0523   12.0237 C.3     1  UNL1        0.1211
     29 C          65.8783   93.3452   11.8642 C.3     1  UNL1        0.1522
     30 O          65.8101   94.3875   12.9407 O.3     1  UNL1       -0.3783
     31 H          65.2478   94.0689   13.6640 H       1  UNL1        0.2109
     32 C          66.6903   93.5957   10.6280 C.ar    1  UNL1        0.0067
     33 C          67.5632   92.5104   10.0713 C.ar    1  UNL1       -0.0018
     34 C          68.3751   92.7609    8.8351 C.ar    1  UNL1        0.0006
     35 C          68.3141   94.0968    8.1557 C.ar    1  UNL1        0.0114
     36 C          67.4412   95.1822    8.7125 C.ar    1  UNL1        0.0574
     37 CL         67.3803   96.5181    8.0331 Cl      1  UNL1       -0.0823
     38 C          66.6293   94.9316    9.9486 C.ar    1  UNL1        0.0095
@<TRIPOS>BOND
     1     8     9    1
     2     9    10    2
     3    10    11    1
     4    11    18    1
     5    18    19    1
     6    19    20    1
     7    20    21    1
     8    21    22    1
     9    21    23    1
    10    23    24    1
    11    11    12    2
    12    12    13    1
    13    13    14    2
    14    14    15    1
    15    15     1    1
    16     1     2    1
    17     2    26    1
    18    26    28    1
    19    28    29    1
    20    29    30    1
    21    29    32    1
    22    32    33   ar
    23    33    34   ar
    24    34    35   ar
    25    35    36   ar
    26    36    37    1
    27    36    38   ar
    28     2     3    2
    29     3     4    1
    30     4     5    2
    31     5     6    1
    32     6     7    2
    33    15    16    2
    34    16    17    1
    35    17     9    1
    36    24    18    1
    37    17    13    1
    38     6     1    1
    39    38    32   ar
    40    22    25    1
    41    26    27    1
    42    30    31    1
@<TRIPOS>MOLECULE
*****
 38 42 0 0 0
SMALL
GASTEIGER

@<TRIPOS>ATOM
      1 C          65.1263   91.5214   13.5432 C.3     1  UNL1        0.2246
      2 C          64.9187   91.9793   12.1299 C.2     1  UNL1        0.0436
      3 C          65.3623   93.3502   11.7129 C.2     1  UNL1        0.0288
      4 C          66.0134   94.2632   12.7091 C.2     1  UNL1        0.0896
      5 N          66.2210   93.8054   14.1224 N.am    1  UNL1       -0.1770
      6 C          65.7774   92.4345   14.5394 C.2     1  UNL1        0.2627
      7 O          65.9849   91.9766   15.9526 O.2     1  UNL1       -0.2719
      8 C          63.0422   87.8793   17.7236 C.3     1  UNL1        0.0312
      9 C          63.3291   87.3665   16.3434 C.2     1  UNL1        0.0136
     10 C          63.0885   85.9230   16.0146 C.2     1  UNL1        0.0107
     11 C          63.3753   85.4103   14.6345 C.2     1  UNL1        0.0509
     12 C          63.9030   86.3411   13.5831 C.2     1  UNL1        0.0613
     13 C          64.1436   87.7847   13.9120 C.2     1  UNL1        0.2246
     14 N          64.6541   88.9300   13.0888 N.2     1  UNL1       -0.0378
     15 C          64.6827   90.1505   13.9603 C.2     1  UNL1        0.3605
     16 N          64.1899   89.7596   15.3220 N.2     1  UNL1       -0.0547
     17 C          63.8567   88.2974   15.2922 C.3     1  UNL1        0.2976
     18 N          63.1347   83.9666   14.3056 N.pl3   1  UNL1       -0.3073
     19 C          61.9353   83.2600   14.8643 C.3     1  UNL1        0.0933
     20 C          61.6946   81.8164   14.5355 C.3     1  UNL1        0.0507
     21 C          62.6533   81.0795   13.6479 C.3     1  UNL1        0.1139
     22 O          62.4127   79.6359   13.3190 O.3     1  UNL1       -0.3843
     23 C          63.8527   81.7861   13.0892 C.3     1  UNL1        0.0507
     24 C          64.0934   83.2297   13.4181 C.3     1  UNL1        0.0933
     25 H          63.1205   79.3141   12.7390 H       1  UNL1        0.2103
     26 N          64.2677   91.0663   11.1337 N.pl3   1  UNL1       -0.3329
     27 H          64.8144   90.4302   10.6182 H       1  UNL1        0.1466
     28 C          62.7836   91.1225   10.9228 C.3     1  UNL1        0.1211
     29 C          61.9191   89.9805   11.3682 C.3     1  UNL1        0.1522
     30 O          61.4685   89.8934   12.7962 O.3     1  UNL1       -0.3783
     31 H          61.8214   90.6479   13.2932 H       1  UNL1        0.2109
     32 C          61.5051   88.9256   10.3854 C.ar    1  UNL1        0.0067
     33 C          60.2394   89.0899    9.5974 C.ar    1  UNL1       -0.0018
     34 C          59.8254   88.0350    8.6147 C.ar    1  UNL1        0.0006
     35 C          60.6771   86.8156    8.4200 C.ar    1  UNL1        0.0114
     36 C          61.9428   86.6513    9.2080 C.ar    1  UNL1        0.0574
     37 CL         62.7945   85.4320    9.0133 Cl      1  UNL1       -0.0823
     38 C          62.3568   87.7062   10.1907 C.ar    1  UNL1        0.0095
@<TRIPOS>BOND
     1     8     9    1
     2     9    10    2
     3    10    11    1
     4    11    18    1
     5    18    19    1
     6    19    20    1
     7    20    21    1
     8    21    22    1
     9    21    23    1
    10    23    24    1
    11    11    12    2
    12    12    13    1
    13    13    14    2
    14    14    15    1
    15    15     1    1
    16     1     2    1
    17     2    26    1
    18    26    28    1
    19    28    29    1
    20    29    30    1
    21    29    32    1
    22    32    33   ar
    23    33    34   ar
    24    34    35   ar
    25    35    36   ar
    26    36    37    1
    27    36    38   ar
    28     2     3    2
    29     3     4    1
    30     4     5    2
    31     5     6    1
    32     6     7    2
    33    15    16    2
    34    16    17    1
    35    17     9    1
    36    24    18    1
    37    17    13    1
    38     6     1    1
    39    38    32   ar
    40    22    25    1
    41    26    27    1
    42    30    31    1
@<TRIPOS>MOLECULE
*****
 38 42 0 0 0
SMALL
GASTEIGER

@<TRIPOS>ATOM
      1 C          63.1498   83.4817   13.5960 C.3     1  UNL1        0.2246
      2 C          62.5931   83.1535   12.2423 C.2     1  UNL1        0.0436
      3 C          62.3371   81.7250   11.8630 C.2     1  UNL1        0.0288
      4 C          62.6378   80.6248   12.8371 C.2     1  UNL1        0.0896
      5 N          63.1945   80.9530   14.1907 N.am    1  UNL1       -0.1770
      6 C          63.4505   82.3815   14.5701 C.2     1  UNL1        0.2627
      7 O          64.0073   82.7097   15.9238 O.2     1  UNL1       -0.2719
      8 C          62.8118   87.8451   17.5874 C.3     1  UNL1        0.0312
      9 C          63.4167   88.0952   16.2377 C.2     1  UNL1        0.0136
     10 C          63.9409   89.4573   15.8915 C.2     1  UNL1        0.0107
     11 C          64.5457   89.7075   14.5419 C.2     1  UNL1        0.0509
     12 C          64.6265   88.5955   13.5384 C.2     1  UNL1        0.0613
     13 C          64.1023   87.2334   13.8846 C.2     1  UNL1        0.2246
     14 N          64.0457   85.9521   13.1066 N.2     1  UNL1       -0.0378
     15 C          63.4059   84.9102   13.9754 C.2     1  UNL1        0.3605
     16 N          63.0670   85.5474   15.2904 N.2     1  UNL1       -0.0547
     17 C          63.4974   86.9832   15.2343 C.3     1  UNL1        0.2976
     18 N          65.0699   91.0697   14.1957 N.pl3   1  UNL1       -0.3073
     19 C          64.8960   91.6096   12.8071 C.3     1  UNL1        0.0933
     20 C          65.4201   92.9717   12.4609 C.3     1  UNL1        0.0507
     21 C          66.1182   93.7939   13.5033 C.3     1  UNL1        0.1139
     22 O          66.6424   95.1560   13.1572 O.3     1  UNL1       -0.3843
     23 C          66.2922   93.2540   14.8919 C.3     1  UNL1        0.0507
     24 C          65.7680   91.8919   15.2381 C.3     1  UNL1        0.0933
     25 H          67.0623   95.5490   13.9383 H       1  UNL1        0.2103
     26 N          62.2924   84.2537   11.2681 N.pl3   1  UNL1       -0.3329
     27 H          61.5045   84.8285   11.4026 H       1  UNL1        0.1466
     28 C          63.1920   84.4781   10.0890 C.3     1  UNL1        0.1211
     29 C          62.6878   85.2308    8.8935 C.3     1  UNL1        0.1522
     30 O          62.9872   84.7307    7.5114 O.3     1  UNL1       -0.3783
     31 H          63.5121   83.9170    7.5686 H       1  UNL1        0.2109
     32 C          61.8842   86.4835    9.0801 C.ar    1  UNL1        0.0067
     33 C          60.4946   86.5732    8.5225 C.ar    1  UNL1       -0.0018
     34 C          59.6909   87.8259    8.7092 C.ar    1  UNL1        0.0006
     35 C          60.2769   88.9890    9.4534 C.ar    1  UNL1        0.0114
     36 C          61.6665   88.8993   10.0110 C.ar    1  UNL1        0.0574
     37 CL         62.2524   90.0624   10.7553 Cl      1  UNL1       -0.0823
     38 C          62.4701   87.6466    9.8244 C.ar    1  UNL1        0.0095
@<TRIPOS>BOND
     1     8     9    1
     2     9    10    2
     3    10    11    1
     4    11    18    1
     5    18    19    1
     6    19    20    1
     7    20    21    1
     8    21    22    1
     9    21    23    1
    10    23    24    1
    11    11    12    2
    12    12    13    1
    13    13    14    2
    14    14    15    1
    15    15     1    1
    16     1     2    1
    17     2    26    1
    18    26    28    1
    19    28    29    1
    20    29    30    1
    21    29    32    1
    22    32    33   ar
    23    33    34   ar
    24    34    35   ar
    25    35    36   ar
    26    36    37    1
    27    36    38   ar
    28     2     3    2
    29     3     4    1
    30     4     5    2
    31     5     6    1
    32     6     7    2
    33    15    16    2
    34    16    17    1
    35    17     9    1
    36    24    18    1
    37    17    13    1
    38     6     1    1
    39    38    32   ar
    40    22    25    1
    41    26    27    1
    42    30    31    1
@<TRIPOS>MOLECULE
*****
 38 42 0 0 0
SMALL
GASTEIGER

@<TRIPOS>ATOM
      1 C          64.3541   91.1497   14.5226 C.3     1  UNL1        0.2246
      2 C          65.5457   91.9237   14.0418 C.2     1  UNL1        0.0436
      3 C          66.3755   92.7053   15.0168 C.2     1  UNL1        0.0288
      4 C          66.0137   92.7130   16.4725 C.2     1  UNL1        0.0896
      5 N          64.8222   91.9391   16.9533 N.am    1  UNL1       -0.1770
      6 C          63.9924   91.1575   15.9783 C.2     1  UNL1        0.2627
      7 O          62.8008   90.3835   16.4590 O.2     1  UNL1       -0.2719
      8 C          59.0302   89.5808   12.4540 C.3     1  UNL1        0.0312
      9 C          60.2795   89.0346   11.8286 C.2     1  UNL1        0.0136
     10 C          60.1855   88.0846   10.6716 C.2     1  UNL1        0.0107
     11 C          61.4346   87.5385   10.0462 C.2     1  UNL1        0.0509
     12 C          62.7779   87.9423   10.5778 C.2     1  UNL1        0.0613
     13 C          62.8720   88.8923   11.7348 C.2     1  UNL1        0.2246
     14 N          64.0472   89.4668   12.4687 N.2     1  UNL1       -0.0378
     15 C          63.5243   90.3681   13.5476 C.2     1  UNL1        0.3605
     16 N          62.0259   90.3506   13.4806 N.2     1  UNL1       -0.0547
     17 C          61.6227   89.4384   12.3602 C.3     1  UNL1        0.2976
     18 N          61.3405   86.5884    8.8891 N.pl3   1  UNL1       -0.3073
     19 C          62.5549   85.8311    8.4399 C.3     1  UNL1        0.0933
     20 C          62.4609   84.8811    7.2830 C.3     1  UNL1        0.0507
     21 C          61.1525   84.6884    6.5752 C.3     1  UNL1        0.1139
     22 O          61.0584   83.7384    5.4182 O.3     1  UNL1       -0.3843
     23 C          59.9381   85.4457    7.0244 C.3     1  UNL1        0.0507
     24 C          60.0322   86.3957    8.1813 C.3     1  UNL1        0.0933
     25 H          60.1501   83.7325    5.0778 H       1  UNL1        0.2103
     26 N          65.9076   91.9160   12.5862 N.pl3   1  UNL1       -0.3329
     27 H          65.2888   91.5261   11.9272 H       1  UNL1        0.1466
     28 C          67.2122   92.5025   12.1345 C.3     1  UNL1        0.1211
     29 C          67.4846   92.6876   10.6711 C.3     1  UNL1        0.1522
     30 O          68.1630   91.6006    9.8911 O.3     1  UNL1       -0.3783
     31 H          68.3562   90.8534   10.4787 H       1  UNL1        0.2109
     32 C          67.0787   93.9596    9.9876 C.ar    1  UNL1        0.0067
     33 C          67.8135   94.4212    8.7642 C.ar    1  UNL1       -0.0018
     34 C          67.4076   95.6933    8.0808 C.ar    1  UNL1        0.0006
     35 C          66.2668   96.5038    8.6208 C.ar    1  UNL1        0.0114
     36 C          65.5319   96.0421    9.8442 C.ar    1  UNL1        0.0574
     37 CL         64.3911   96.8526   10.3842 Cl      1  UNL1       -0.0823
     38 C          65.9378   94.7701   10.5277 C.ar    1  UNL1        0.0095
@<TRIPOS>BOND
     1     8     9    1
     2     9    10    2
     3    10    11    1
     4    11    18    1
     5    18    19    1
     6    19    20    1
     7    20    21    1
     8    21    22    1
     9    21    23    1
    10    23    24    1
    11    11    12    2
    12    12    13    1
    13    13    14    2
    14    14    15    1
    15    15     1    1
    16     1     2    1
    17     2    26    1
    18    26    28    1
    19    28    29    1
    20    29    30    1
    21    29    32    1
    22    32    33   ar
    23    33    34   ar
    24    34    35   ar
    25    35    36   ar
    26    36    37    1
    27    36    38   ar
    28     2     3    2
    29     3     4    1
    30     4     5    2
    31     5     6    1
    32     6     7    2
    33    15    16    2
    34    16    17    1
    35    17     9    1
    36    24    18    1
    37    17    13    1
    38     6     1    1
    39    38    32   ar
    40    22    25    1
    41    26    27    1
    42    30    31    1
@<TRIPOS>MOLECULE
*****
 38 42 0 0 0
SMALL
GASTEIGER

@<TRIPOS>ATOM
      1 C          63.8271   90.8854   14.5204 C.3     1  UNL1        0.2246
      2 C          63.6203   90.5805   15.9745 C.2     1  UNL1        0.0436
      3 C          64.3581   91.3661   17.0178 C.2     1  UNL1        0.0288
      4 C          65.3027   92.4565   16.6072 C.2     1  UNL1        0.0896
      5 N          65.5096   92.7614   15.1532 N.am    1  UNL1       -0.1770
      6 C          64.7718   91.9758   14.1098 C.2     1  UNL1        0.2627
      7 O          64.9787   92.2808   12.6558 O.2     1  UNL1       -0.2719
      8 C          58.7052   89.1942   12.0731 C.3     1  UNL1        0.0312
      9 C          60.0101   88.7026   11.5204 C.2     1  UNL1        0.0136
     10 C          60.0237   87.7765   10.3405 C.2     1  UNL1        0.0107
     11 C          61.3286   87.2850    9.7879 C.2     1  UNL1        0.0509
     12 C          62.6201   87.7194   10.4152 C.2     1  UNL1        0.0613
     13 C          62.6065   88.6454   11.5951 C.2     1  UNL1        0.2246
     14 N          63.7115   89.2405   12.4166 N.2     1  UNL1       -0.0378
     15 C          63.0894   90.0999   13.4770 C.2     1  UNL1        0.3605
     16 N          61.6000   90.0360   13.3108 N.2     1  UNL1       -0.0547
     17 C          61.3015   89.1370   12.1477 C.3     1  UNL1        0.2976
     18 N          61.3421   86.3589    8.6079 N.pl3   1  UNL1       -0.3073
     19 C          62.6071   85.6488    8.2262 C.3     1  UNL1        0.0933
     20 C          62.6207   84.7228    7.0463 C.3     1  UNL1        0.0507
     21 C          61.3692   84.5068    6.2480 C.3     1  UNL1        0.1139
     22 O          61.3827   83.5808    5.0681 O.3     1  UNL1       -0.3843
     23 C          60.1042   85.2168    6.6297 C.3     1  UNL1        0.0507
     24 C          60.0907   86.1429    7.8096 C.3     1  UNL1        0.0933
     25 H          60.4998   83.5551    4.6672 H       1  UNL1        0.2103
     26 N          62.6757   89.4901   16.3852 N.pl3   1  UNL1       -0.3329
     27 H          61.7127   89.5774   16.1998 H       1  UNL1        0.1466
     28 C          63.1981   88.2668   17.0783 C.3     1  UNL1        0.1211
     29 C          62.6183   86.9201   16.7616 C.3     1  UNL1        0.1522
     30 O          61.2805   86.5302   17.3168 O.3     1  UNL1       -0.3783
     31 H          60.9294   87.2569   17.8549 H       1  UNL1        0.2109
     32 C          63.3762   85.9635   15.8896 C.ar    1  UNL1        0.0067
     33 C          64.6940   86.3695   15.2993 C.ar    1  UNL1       -0.0018
     34 C          65.4519   85.4129   14.4274 C.ar    1  UNL1        0.0006
     35 C          64.8921   84.0500   14.1457 C.ar    1  UNL1        0.0114
     36 C          63.5743   83.6440   14.7361 C.ar    1  UNL1        0.0574
     37 CL         63.0145   82.2811   14.4545 Cl      1  UNL1       -0.0823
     38 C          62.8164   84.6006   15.6080 C.ar    1  UNL1        0.0095
@<TRIPOS>BOND
     1     8     9    1
     2     9    10    2
     3    10    11    1
     4    11    18    1
     5    18    19    1
     6    19    20    1
     7    20    21    1
     8    21    22    1
     9    21    23    1
    10    23    24    1
    11    11    12    2
    12    12    13    1
    13    13    14    2
    14    14    15    1
    15    15     1    1
    16     1     2    1
    17     2    26    1
    18    26    28    1
    19    28    29    1
    20    29    30    1
    21    29    32    1
    22    32    33   ar
    23    33    34   ar
    24    34    35   ar
    25    35    36   ar
    26    36    37    1
    27    36    38   ar
    28     2     3    2
    29     3     4    1
    30     4     5    2
    31     5     6    1
    32     6     7    2
    33    15    16    2
    34    16    17    1
    35    17     9    1
    36    24    18    1
    37    17    13    1
    38     6     1    1
    39    38    32   ar
    40    22    25    1
    41    26    27    1
    42    30    31    1
@<TRIPOS>MOLECULE
*****
 38 42 0 0 0
SMALL
GASTEIGER

@<TRIPOS>ATOM
      1 C          64.0127   90.8768   14.8011 C.3     1  UNL1        0.2246
      2 C          65.2207   91.6813   14.4223 C.2     1  UNL1        0.0436
      3 C          65.9810   92.4332   15.4743 C.2     1  UNL1        0.0288
      4 C          65.5333   92.3807   16.9049 C.2     1  UNL1        0.0896
      5 N          64.3253   91.5762   17.2837 N.am    1  UNL1       -0.1770
      6 C          63.5650   90.8242   16.2317 C.2     1  UNL1        0.2627
      7 O          62.3570   90.0197   16.6105 O.2     1  UNL1       -0.2719
      8 C          58.8463   89.3944   12.3121 C.3     1  UNL1        0.0312
      9 C          60.1352   88.8554   11.7658 C.2     1  UNL1        0.0136
     10 C          60.1211   87.9346   10.5817 C.2     1  UNL1        0.0107
     11 C          61.4099   87.3957   10.0355 C.2     1  UNL1        0.0509
     12 C          62.7128   87.7774   10.6733 C.2     1  UNL1        0.0613
     13 C          62.7269   88.6981   11.8574 C.2     1  UNL1        0.2246
     14 N          63.8482   89.2467   12.6890 N.2     1  UNL1       -0.0378
     15 C          63.2524   90.1248   13.7492 C.2     1  UNL1        0.3605
     16 N          61.7628   90.1188   13.5728 N.2     1  UNL1       -0.0547
     17 C          61.4380   89.2371   12.4036 C.3     1  UNL1        0.2976
     18 N          61.3959   86.4749    8.8514 N.pl3   1  UNL1       -0.3073
     19 C          60.1379   86.2980    8.0537 C.3     1  UNL1        0.0933
     20 C          60.1239   85.3773    6.8696 C.3     1  UNL1        0.0507
     21 C          61.3678   84.6334    6.4832 C.3     1  UNL1        0.1139
     22 O          61.3538   83.7127    5.2992 O.3     1  UNL1       -0.3843
     23 C          62.6258   84.8103    7.2809 C.3     1  UNL1        0.0507
     24 C          62.6398   85.7310    8.4649 C.3     1  UNL1        0.0933
     25 H          62.2315   83.3147    5.1887 H       1  UNL1        0.2103
     26 N          65.6685   91.7338   12.9917 N.pl3   1  UNL1       -0.3329
     27 H          66.3138   91.0718   12.6533 H       1  UNL1        0.1466
     28 C          65.1332   92.7951   12.0767 C.3     1  UNL1        0.1211
     29 C          65.9521   94.0178   11.7864 C.3     1  UNL1        0.1522
     30 O          66.0288   95.1259   12.7945 O.3     1  UNL1       -0.3783
     31 H          65.4959   94.8939   13.5711 H       1  UNL1        0.2109
     32 C          66.6942   94.1325   10.4879 C.ar    1  UNL1        0.0067
     33 C          66.5677   95.3762    9.6590 C.ar    1  UNL1       -0.0018
     34 C          67.3098   95.4909    8.3605 C.ar    1  UNL1        0.0006
     35 C          68.1785   94.3619    7.8909 C.ar    1  UNL1        0.0114
     36 C          68.3051   93.1182    8.7198 C.ar    1  UNL1        0.0574
     37 CL         69.1738   91.9891    8.2501 Cl      1  UNL1       -0.0823
     38 C          67.5629   93.0035   10.0183 C.ar    1  UNL1        0.0095
@<TRIPOS>BOND
     1     8     9    1
     2     9    10    2
     3    10    11    1
     4    11    18    1
     5    18    19    1
     6    19    20    1
     7    20    21    1
     8    21    22    1
     9    21    23    1
    10    23    24    1
    11    11    12    2
    12    12    13    1
    13    13    14    2
    14    14    15    1
    15    15     1    1
    16     1     2    1
    17     2    26    1
    18    26    28    1
    19    28    29    1
    20    29    30    1
    21    29    32    1
    22    32    33   ar
    23    33    34   ar
    24    34    35   ar
    25    35    36   ar
    26    36    37    1
    27    36    38   ar
    28     2     3    2
    29     3     4    1
    30     4     5    2
    31     5     6    1
    32     6     7    2
    33    15    16    2
    34    16    17    1
    35    17     9    1
    36    24    18    1
    37    17    13    1
    38     6     1    1
    39    38    32   ar
    40    22    25    1
    41    26    27    1
    42    30    31    1
