@<TRIPOS>MOLECULE
*****
 37 40 0 0 0
SMALL
GASTEIGER

@<TRIPOS>ATOM
      1 N          64.1537   86.3449   13.9290 N.am    1  UNL1       -0.2756
      2 C          63.7274   87.2549   15.0426 C.2     1  UNL1        0.2691
      3 O          63.0493   86.6894   16.2553 O.2     1  UNL1       -0.2681
      4 H          64.5987   86.7161   13.1331 H       1  UNL1        0.1553
      5 C          63.9790   88.7303   14.9437 C.ar    1  UNL1        0.1543
      6 N          64.5743   89.4463   13.7677 N.ar    1  UNL1       -0.2323
      7 C          64.6428   90.9072   14.1005 C.ar    1  UNL1        0.1164
      8 S          64.0897   91.0942   15.4822 S.2     1  UNL1       -0.0520
      9 C          63.6795   89.7488   16.0033 C.ar    1  UNL1        0.0957
     10 N          63.0757   89.4708   17.3480 N.pl3   1  UNL1       -0.3508
     11 H          62.9165   90.2099   17.9785 H       1  UNL1        0.1429
     12 H          62.8387   88.5491   17.6001 H       1  UNL1        0.1429
     13 C          65.1715   91.9909   13.2082 C.ar    1  UNL1        0.0787
     14 C          64.7872   92.0229   11.7586 C.ar    1  UNL1        0.1442
     15 F          63.8743   90.9712   11.2013 F       1  UNL1       -0.2040
     16 C          65.3159   93.1066   10.8663 C.ar    1  UNL1        0.0299
     17 C          66.2288   94.1582   11.4237 C.ar    1  UNL1        0.0046
     18 C          66.6130   94.1263   12.8732 C.ar    1  UNL1        0.0299
     19 C          66.0843   93.0425   13.7655 C.ar    1  UNL1        0.1442
     20 F          66.4686   93.0106   15.2151 F       1  UNL1       -0.2040
     21 C          62.7691   81.3946   12.7214 C.3     1  UNL1        0.1552
     22 N          63.2657   82.5941   13.4729 N.ar    1  UNL1       -0.2344
     23 N          63.7640   82.6041   14.8877 N.ar    1  UNL1       -0.1652
     24 C          64.1573   84.0103   15.2307 C.ar    1  UNL1        0.1376
     25 C          63.9020   84.8695   14.0279 C.ar    1  UNL1        0.1034
     26 C          63.3510   83.9942   12.9416 C.ar    1  UNL1        0.1438
     27 N          62.9548   84.4408   11.5655 N.pl3   1  UNL1       -0.2923
     28 C          61.8322   85.4338   11.5016 C.3     1  UNL1        0.0937
     29 C          61.2111   86.0666   10.2916 C.3     1  UNL1        0.0397
     30 C          61.5592   85.8627    8.8470 C.3     1  UNL1        0.0856
     31 N          60.7444   86.6499    7.8639 N.3     1  UNL1       -0.3200
     32 C          62.6142   84.9757    8.2552 C.3     1  UNL1        0.1767
     33 F          62.7150   84.9933    6.7588 F       1  UNL1       -0.2358
     34 C          63.5819   84.0735    8.9621 C.3     1  UNL1        0.0581
     35 C          63.7334   83.8355   10.4354 C.3     1  UNL1        0.0950
     36 H          61.0589   86.4403    6.9165 H       1  UNL1        0.1189
     37 H          60.8597   87.6466    8.0477 H       1  UNL1        0.1189
@<TRIPOS>BOND
     1    21    22    1
     2    22    23   ar
     3    23    24   ar
     4    24    25   ar
     5    25     1    1
     6     1     2   am
     7     2     3    2
     8     2     5    1
     9     5     6   ar
    10     6     7   ar
    11     7    13    1
    12    13    14   ar
    13    14    15    1
    14    14    16   ar
    15    16    17   ar
    16    17    18   ar
    17    18    19   ar
    18    19    20    1
    19     7     8   ar
    20     8     9   ar
    21     9    10    1
    22    25    26   ar
    23    26    27    1
    24    27    28    1
    25    28    29    1
    26    29    30    1
    27    30    31    1
    28    30    32    1
    29    32    33    1
    30    32    34    1
    31    34    35    1
    32    26    22   ar
    33    35    27    1
    34     9     5   ar
    35    19    13   ar
    36     1     4    1
    37    10    11    1
    38    10    12    1
    39    31    36    1
    40    31    37    1
@<TRIPOS>MOLECULE
*****
 37 40 0 0 0
SMALL
GASTEIGER

@<TRIPOS>ATOM
      1 N          64.1546   86.3422   13.9298 N.am    1  UNL1       -0.2756
      2 C          63.7252   87.2524   15.0421 C.2     1  UNL1        0.2691
      3 O          63.0437   86.6871   16.2529 O.2     1  UNL1       -0.2681
      4 H          64.6019   86.7131   13.1351 H       1  UNL1        0.1553
      5 C          63.9774   88.7277   14.9436 C.ar    1  UNL1        0.1543
      6 N          64.5730   89.4439   13.7679 N.ar    1  UNL1       -0.2323
      7 C          64.6419   90.9047   14.1012 C.ar    1  UNL1        0.1164
      8 S          64.0889   91.0914   15.4829 S.2     1  UNL1       -0.0520
      9 C          63.6782   89.7461   16.0036 C.ar    1  UNL1        0.0957
     10 N          63.0743   89.4677   17.3482 N.pl3   1  UNL1       -0.3508
     11 H          62.9153   90.2068   17.9789 H       1  UNL1        0.1429
     12 H          62.8369   88.5460   17.6000 H       1  UNL1        0.1429
     13 C          65.1710   91.9886   13.2093 C.ar    1  UNL1        0.0787
     14 C          66.0832   93.0404   13.7673 C.ar    1  UNL1        0.1442
     15 F          66.4662   93.0085   15.2173 F       1  UNL1       -0.2040
     16 C          66.6123   94.1243   12.8755 C.ar    1  UNL1        0.0299
     17 C          66.2292   94.1561   11.4256 C.ar    1  UNL1        0.0046
     18 C          65.3171   93.1042   10.8675 C.ar    1  UNL1        0.0299
     19 C          64.7880   92.0204   11.7594 C.ar    1  UNL1        0.1442
     20 F          63.8758   90.9685   11.2014 F       1  UNL1       -0.2040
     21 C          62.7691   81.3926   12.7203 C.3     1  UNL1        0.1552
     22 N          63.2656   82.5917   13.4724 N.ar    1  UNL1       -0.2344
     23 N          63.7633   82.6012   14.8874 N.ar    1  UNL1       -0.1652
     24 C          64.1568   84.0072   15.2310 C.ar    1  UNL1        0.1376
     25 C          63.9024   84.8668   14.0282 C.ar    1  UNL1        0.1034
     26 C          63.3516   83.9920   12.9414 C.ar    1  UNL1        0.1438
     27 N          62.9563   84.4390   11.5653 N.pl3   1  UNL1       -0.2923
     28 C          61.8341   85.4324   11.5010 C.3     1  UNL1        0.0937
     29 C          61.2138   86.0657   10.2909 C.3     1  UNL1        0.0397
     30 C          61.5625   85.8621    8.8464 C.3     1  UNL1        0.0856
     31 N          60.7485   86.6498    7.8631 N.3     1  UNL1       -0.3200
     32 C          62.6175   84.9748    8.2549 C.3     1  UNL1        0.1767
     33 F          62.7190   84.9927    6.7585 F       1  UNL1       -0.2358
     34 C          63.5844   84.0721    8.9621 C.3     1  UNL1        0.0581
     35 C          63.7351   83.8337   10.4354 C.3     1  UNL1        0.0950
     36 H          61.0634   86.4403    6.9158 H       1  UNL1        0.1189
     37 H          60.8640   87.6464    8.0472 H       1  UNL1        0.1189
@<TRIPOS>BOND
     1    21    22    1
     2    22    23   ar
     3    23    24   ar
     4    24    25   ar
     5    25     1    1
     6     1     2   am
     7     2     3    2
     8     2     5    1
     9     5     6   ar
    10     6     7   ar
    11     7    13    1
    12    13    14   ar
    13    14    15    1
    14    14    16   ar
    15    16    17   ar
    16    17    18   ar
    17    18    19   ar
    18    19    20    1
    19     7     8   ar
    20     8     9   ar
    21     9    10    1
    22    25    26   ar
    23    26    27    1
    24    27    28    1
    25    28    29    1
    26    29    30    1
    27    30    31    1
    28    30    32    1
    29    32    33    1
    30    32    34    1
    31    34    35    1
    32    26    22   ar
    33    35    27    1
    34     9     5   ar
    35    19    13   ar
    36     1     4    1
    37    10    11    1
    38    10    12    1
    39    31    36    1
    40    31    37    1
@<TRIPOS>MOLECULE
*****
 37 40 0 0 0
SMALL
GASTEIGER

@<TRIPOS>ATOM
      1 N          61.9120   89.1524   11.5029 N.am    1  UNL1       -0.2756
      2 C          62.9180   90.2636   11.4476 C.2     1  UNL1        0.2691
      3 O          63.1298   91.0206   10.1700 O.2     1  UNL1       -0.2681
      4 H          61.7730   88.6556   12.3414 H       1  UNL1        0.1553
      5 C          63.7122   90.6180   12.6697 C.ar    1  UNL1        0.1543
      6 N          65.0635   91.2691   12.6849 N.ar    1  UNL1       -0.2323
      7 C          65.4811   91.4370   14.1158 C.ar    1  UNL1        0.1164
      8 S          64.3879   90.8896   14.9849 S.2     1  UNL1       -0.0520
      9 C          63.2948   90.3834   14.0912 C.ar    1  UNL1        0.0957
     10 N          62.0097   89.7533   14.5402 N.pl3   1  UNL1       -0.3508
     11 H          61.8253   89.6419   15.5008 H       1  UNL1        0.1429
     12 H          61.3506   89.4511   13.8742 H       1  UNL1        0.1429
     13 C          66.7662   92.0454   14.5936 C.ar    1  UNL1        0.0787
     14 C          66.8248   92.7192   15.9324 C.ar    1  UNL1        0.1442
     15 F          65.5982   92.7846   16.7935 F       1  UNL1       -0.2040
     16 C          68.1099   93.3277   16.4103 C.ar    1  UNL1        0.0299
     17 C          69.3363   93.2623   15.5492 C.ar    1  UNL1        0.0046
     18 C          69.2778   92.5885   14.2104 C.ar    1  UNL1        0.0299
     19 C          67.9926   91.9801   13.7325 C.ar    1  UNL1        0.1442
     20 F          67.9341   91.3063   12.3937 F       1  UNL1       -0.2040
     21 C          59.8647   86.4542    7.4522 C.3     1  UNL1        0.1552
     22 N          60.1767   87.5579    8.4188 N.ar    1  UNL1       -0.2344
     23 N          59.6143   88.9480    8.3814 N.ar    1  UNL1       -0.1652
     24 C          60.1959   89.7145    9.5321 C.ar    1  UNL1        0.1376
     25 C          61.1178   88.7981   10.2808 C.ar    1  UNL1        0.1034
     26 C          61.1059   87.4653    9.5928 C.ar    1  UNL1        0.1438
     27 N          61.8862   86.2528   10.0061 N.pl3   1  UNL1       -0.2923
     28 C          61.7767   85.8704   11.4525 C.3     1  UNL1        0.0937
     29 C          62.4269   84.7237   12.1685 C.3     1  UNL1        0.0397
     30 C          63.3469   83.6764   11.6150 C.3     1  UNL1        0.0856
     31 N          63.8342   82.6531   12.5976 N.3     1  UNL1       -0.3200
     32 C          63.8442   83.5169   10.2088 C.3     1  UNL1        0.1767
     33 F          64.7630   82.3553    9.9712 F       1  UNL1       -0.2358
     34 C          63.5442   84.3654    9.0089 C.3     1  UNL1        0.0581
     35 C          62.6728   85.5830    8.9187 C.3     1  UNL1        0.0950
     36 H          64.4490   81.9918   12.1231 H       1  UNL1        0.1189
     37 H          63.0370   82.1536   12.9918 H       1  UNL1        0.1189
@<TRIPOS>BOND
     1    21    22    1
     2    22    23   ar
     3    23    24   ar
     4    24    25   ar
     5    25     1    1
     6     1     2   am
     7     2     3    2
     8     2     5    1
     9     5     6   ar
    10     6     7   ar
    11     7    13    1
    12    13    14   ar
    13    14    15    1
    14    14    16   ar
    15    16    17   ar
    16    17    18   ar
    17    18    19   ar
    18    19    20    1
    19     7     8   ar
    20     8     9   ar
    21     9    10    1
    22    25    26   ar
    23    26    27    1
    24    27    28    1
    25    28    29    1
    26    29    30    1
    27    30    31    1
    28    30    32    1
    29    32    33    1
    30    32    34    1
    31    34    35    1
    32    26    22   ar
    33    35    27    1
    34     9     5   ar
    35    19    13   ar
    36     1     4    1
    37    10    11    1
    38    10    12    1
    39    31    36    1
    40    31    37    1
@<TRIPOS>MOLECULE
*****
 37 40 0 0 0
SMALL
GASTEIGER

@<TRIPOS>ATOM
      1 N          61.9332   89.1402   11.5104 N.am    1  UNL1       -0.2756
      2 C          62.9201   90.2687   11.4606 C.2     1  UNL1        0.2691
      3 O          63.1094   91.0439   10.1904 O.2     1  UNL1       -0.2681
      4 H          61.8090   88.6314   12.3440 H       1  UNL1        0.1553
      5 C          63.7177   90.6220   12.6808 C.ar    1  UNL1        0.1543
      6 N          65.0686   91.2740   12.6928 N.ar    1  UNL1       -0.2323
      7 C          65.4903   91.4403   14.1226 C.ar    1  UNL1        0.1164
      8 S          64.4001   90.8911   14.9943 S.2     1  UNL1       -0.0520
      9 C          63.3046   90.3854   14.1032 C.ar    1  UNL1        0.0957
     10 N          62.0212   89.7539   14.5552 N.pl3   1  UNL1       -0.3508
     11 H          61.8398   89.6412   15.5162 H       1  UNL1        0.1429
     12 H          61.3604   89.4521   13.8908 H       1  UNL1        0.1429
     13 C          66.7765   92.0490   14.5974 C.ar    1  UNL1        0.0787
     14 C          68.0020   91.9800   13.7353 C.ar    1  UNL1        0.1442
     15 F          67.9414   91.3025   12.3984 F       1  UNL1       -0.2040
     16 C          69.2882   92.5887   14.2100 C.ar    1  UNL1        0.0299
     17 C          69.3487   93.2663   15.5469 C.ar    1  UNL1        0.0046
     18 C          68.1232   93.3352   16.4090 C.ar    1  UNL1        0.0299
     19 C          66.8370   92.7265   15.9342 C.ar    1  UNL1        0.1442
     20 F          65.6115   92.7955   16.7964 F       1  UNL1       -0.2040
     21 C          59.8696   86.4433    7.4670 C.3     1  UNL1        0.1552
     22 N          60.1870   87.5473    8.4316 N.ar    1  UNL1       -0.2344
     23 N          59.6293   88.9393    8.3932 N.ar    1  UNL1       -0.1652
     24 C          60.2155   89.7053    9.5418 C.ar    1  UNL1        0.1376
     25 C          61.1356   88.7869   10.2902 C.ar    1  UNL1        0.1034
     26 C          61.1180   87.4532    9.6040 C.ar    1  UNL1        0.1438
     27 N          61.8950   86.2386   10.0176 N.pl3   1  UNL1       -0.2923
     28 C          61.7845   85.8569   11.4641 C.3     1  UNL1        0.0937
     29 C          62.4315   84.7086   12.1804 C.3     1  UNL1        0.0397
     30 C          63.3485   83.6585   11.6271 C.3     1  UNL1        0.0856
     31 N          63.8330   82.6342   12.6099 N.3     1  UNL1       -0.3200
     32 C          63.8453   83.4973   10.2209 C.3     1  UNL1        0.1767
     33 F          64.7608   82.3331    9.9836 F       1  UNL1       -0.2358
     34 C          63.5476   84.3463    9.0208 C.3     1  UNL1        0.0581
     35 C          62.6796   85.5663    8.9304 C.3     1  UNL1        0.0950
     36 H          64.4459   81.9710   12.1356 H       1  UNL1        0.1189
     37 H          63.0345   82.1370   13.0043 H       1  UNL1        0.1189
@<TRIPOS>BOND
     1    21    22    1
     2    22    23   ar
     3    23    24   ar
     4    24    25   ar
     5    25     1    1
     6     1     2   am
     7     2     3    2
     8     2     5    1
     9     5     6   ar
    10     6     7   ar
    11     7    13    1
    12    13    14   ar
    13    14    15    1
    14    14    16   ar
    15    16    17   ar
    16    17    18   ar
    17    18    19   ar
    18    19    20    1
    19     7     8   ar
    20     8     9   ar
    21     9    10    1
    22    25    26   ar
    23    26    27    1
    24    27    28    1
    25    28    29    1
    26    29    30    1
    27    30    31    1
    28    30    32    1
    29    32    33    1
    30    32    34    1
    31    34    35    1
    32    26    22   ar
    33    35    27    1
    34     9     5   ar
    35    19    13   ar
    36     1     4    1
    37    10    11    1
    38    10    12    1
    39    31    36    1
    40    31    37    1
