@<TRIPOS>MOLECULE
*****
 39 42 0 0 0
SMALL
GASTEIGER

@<TRIPOS>ATOM
      1 C          61.5494   89.4789   11.7703 C.3     1  UNL1        0.1323
      2 C          62.7323   90.3203   12.1483 C.ar    1  UNL1        0.1409
      3 N          63.4400   91.1317   11.1039 N.ar    1  UNL1       -0.2305
      4 C          64.6229   91.9731   11.4819 C.ar    1  UNL1        0.0881
      5 C          65.3306   92.7845   10.4376 C.ar    1  UNL1        0.0307
      6 C          66.5134   93.6259   10.8156 C.ar    1  UNL1        0.0592
      7 CL         67.2211   94.4373    9.7712 Cl      1  UNL1       -0.0822
      8 C          66.9885   93.6559   12.2380 C.ar    1  UNL1        0.0116
      9 C          66.2809   92.8445   13.2824 C.ar    1  UNL1        0.0071
     10 C          65.0981   92.0031   12.9044 C.ar    1  UNL1        0.0739
     11 C          64.3903   91.1916   13.9488 C.ar    1  UNL1        0.2634
     12 O          64.8655   91.2216   15.3712 O.2     1  UNL1       -0.2669
     13 N          63.2075   90.3503   13.5707 N.ar    1  UNL1       -0.2785
     14 C          62.4998   89.5388   14.6152 C.3     1  UNL1        0.1369
     15 C          63.1115   88.2643   15.1166 C.ar    1  UNL1        0.0005
     16 C          62.6927   87.7024   16.4429 C.ar    1  UNL1       -0.0024
     17 C          63.3044   86.4279   16.9444 C.ar    1  UNL1       -0.0003
     18 C          64.3349   85.7153   16.1196 C.ar    1  UNL1       -0.0000
     19 C          64.7537   86.2772   14.7933 C.ar    1  UNL1       -0.0003
     20 C          64.1419   87.5517   14.2919 C.ar    1  UNL1       -0.0024
     21 C          61.1054   88.2800    9.5085 C.2     1  UNL1        0.2493
     22 O          60.2998   89.4565    9.0430 O.2     1  UNL1       -0.2699
     23 N          61.7302   88.2911   10.8722 N.am    1  UNL1       -0.2708
     24 C          61.8287   83.5291    5.9160 C.3     1  UNL1        0.0310
     25 C          61.6479   84.7168    6.8141 C.ar    1  UNL1       -0.0218
     26 C          60.3140   85.3982    6.8972 C.ar    1  UNL1       -0.0041
     27 C          60.1332   86.5859    7.7953 C.ar    1  UNL1        0.0042
     28 C          61.2862   87.0923    8.6104 C.ar    1  UNL1        0.0536
     29 C          62.6199   86.4110    8.5273 C.ar    1  UNL1        0.0042
     30 C          62.8008   85.2233    7.6291 C.ar    1  UNL1       -0.0041
     31 C          62.5359   87.1146   11.3377 C.3     1  UNL1        0.0955
     32 C          61.8429   85.8807   11.8349 C.3     1  UNL1        0.0383
     33 C          62.5792   84.5747   11.8825 C.3     1  UNL1        0.0669
     34 N          62.6440   83.7965   13.1632 N.3     1  UNL1       -0.3211
     35 H          63.1821   84.3210   13.8529 H       1  UNL1        0.1189
     36 H          63.0947   82.8975   12.9923 H       1  UNL1        0.1189
     37 C          60.1858   89.8252   12.2904 C.3     1  UNL1        0.0255
     38 C          59.4298   90.9796   11.7025 C.3     1  UNL1        0.0022
     39 C          59.5782   89.0170   13.3984 C.3     1  UNL1        0.0022
@<TRIPOS>BOND
     1    24    25    1
     2    25    26   ar
     3    26    27   ar
     4    27    28   ar
     5    28    21    1
     6    21    22    2
     7    21    23   am
     8    23    31    1
     9    31    32    1
    10    32    33    1
    11    33    34    1
    12    23     1    1
    13     1     2    1
    14     2     3   ar
    15     3     4   ar
    16     4     5   ar
    17     5     6   ar
    18     6     7    1
    19     6     8   ar
    20     8     9   ar
    21     9    10   ar
    22    10    11   ar
    23    11    12    2
    24    11    13   ar
    25    13    14    1
    26    14    15    1
    27    15    16   ar
    28    16    17   ar
    29    17    18   ar
    30    18    19   ar
    31    19    20   ar
    32     1    37    1
    33    37    38    1
    34    37    39    1
    35    28    29   ar
    36    29    30   ar
    37    30    25   ar
    38    13     2   ar
    39    20    15   ar
    40    10     4   ar
    41    34    35    1
    42    34    36    1
@<TRIPOS>MOLECULE
*****
 39 42 0 0 0
SMALL
GASTEIGER

@<TRIPOS>ATOM
      1 C          62.0706   88.8370   12.2085 C.3     1  UNL1        0.1323
      2 C          62.4096   87.4415   11.7751 C.ar    1  UNL1        0.1409
      3 N          62.7040   86.3881   12.8015 N.ar    1  UNL1       -0.2305
      4 C          63.0430   84.9926   12.3681 C.ar    1  UNL1        0.0881
      5 C          63.3373   83.9391   13.3945 C.ar    1  UNL1        0.0307
      6 C          63.6763   82.5437   12.9611 C.ar    1  UNL1        0.0592
      7 CL         63.9707   81.4902   13.9876 Cl      1  UNL1       -0.0822
      8 C          63.7210   82.2018   11.5013 C.ar    1  UNL1        0.0116
      9 C          63.4267   83.2552   10.4749 C.ar    1  UNL1        0.0071
     10 C          63.0876   84.6506   10.9083 C.ar    1  UNL1        0.0739
     11 C          62.7933   85.7042    9.8819 C.ar    1  UNL1        0.2634
     12 O          62.8379   85.3622    8.4221 O.2     1  UNL1       -0.2669
     13 N          62.4543   87.0996   10.3153 N.ar    1  UNL1       -0.2785
     14 C          62.1599   88.1531    9.2889 C.3     1  UNL1        0.1369
     15 C          60.8601   88.1287    8.5406 C.ar    1  UNL1        0.0005
     16 C          60.0321   86.8781    8.5162 C.ar    1  UNL1       -0.0024
     17 C          58.7323   86.8537    7.7679 C.ar    1  UNL1       -0.0003
     18 C          58.2606   88.0799    7.0439 C.ar    1  UNL1       -0.0000
     19 C          59.0886   89.3304    7.0683 C.ar    1  UNL1       -0.0003
     20 C          60.3884   89.3548    7.8167 C.ar    1  UNL1       -0.0024
     21 C          63.9744   90.6042   12.2600 C.2     1  UNL1        0.2493
     22 O          63.8777   90.7517   10.7704 O.2     1  UNL1       -0.2699
     23 N          63.0708   89.6468   12.9791 N.am    1  UNL1       -0.2708
     24 C          67.9751   93.8436   15.3422 C.3     1  UNL1        0.0310
     25 C          66.9749   93.0338   14.5717 C.ar    1  UNL1       -0.0218
     26 C          66.4251   93.5554   13.2771 C.ar    1  UNL1       -0.0041
     27 C          65.4249   92.7455   12.5066 C.ar    1  UNL1        0.0042
     28 C          64.9745   91.4141   13.0305 C.ar    1  UNL1        0.0536
     29 C          65.5244   90.8926   14.3250 C.ar    1  UNL1        0.0042
     30 C          66.5245   91.7024   15.0956 C.ar    1  UNL1       -0.0041
     31 C          63.1674   89.4993   14.4686 C.3     1  UNL1        0.0955
     32 C          63.9847   88.3898   15.0610 C.3     1  UNL1        0.0383
     33 C          63.4764   87.6397   16.2564 C.3     1  UNL1        0.0669
     34 N          63.1084   86.1909   16.1320 N.3     1  UNL1       -0.3211
     35 H          62.3012   86.0968   15.5156 H       1  UNL1        0.1189
     36 H          62.8781   85.8183   17.0532 H       1  UNL1        0.1189
     37 C          60.7314   89.4225   11.8714 C.3     1  UNL1        0.0255
     38 C          60.6441   90.7803   11.2399 C.3     1  UNL1        0.0022
     39 C          59.4796   88.6503   12.1657 C.3     1  UNL1        0.0022
@<TRIPOS>BOND
     1    24    25    1
     2    25    26   ar
     3    26    27   ar
     4    27    28   ar
     5    28    21    1
     6    21    22    2
     7    21    23   am
     8    23    31    1
     9    31    32    1
    10    32    33    1
    11    33    34    1
    12    23     1    1
    13     1     2    1
    14     2     3   ar
    15     3     4   ar
    16     4     5   ar
    17     5     6   ar
    18     6     7    1
    19     6     8   ar
    20     8     9   ar
    21     9    10   ar
    22    10    11   ar
    23    11    12    2
    24    11    13   ar
    25    13    14    1
    26    14    15    1
    27    15    16   ar
    28    16    17   ar
    29    17    18   ar
    30    18    19   ar
    31    19    20   ar
    32     1    37    1
    33    37    38    1
    34    37    39    1
    35    28    29   ar
    36    29    30   ar
    37    30    25   ar
    38    13     2   ar
    39    20    15   ar
    40    10     4   ar
    41    34    35    1
    42    34    36    1
@<TRIPOS>MOLECULE
*****
 39 42 0 0 0
SMALL
GASTEIGER

@<TRIPOS>ATOM
      1 C          61.3012   89.8133   11.2941 C.3     1  UNL1        0.1323
      2 C          62.5557   90.5106   11.7301 C.ar    1  UNL1        0.1409
      3 N          63.3193   91.3588   10.7569 N.ar    1  UNL1       -0.2305
      4 C          64.5739   92.0560   11.1929 C.ar    1  UNL1        0.0881
      5 C          65.3375   92.9043   10.2197 C.ar    1  UNL1        0.0307
      6 C          66.5920   93.6015   10.6558 C.ar    1  UNL1        0.0592
      7 CL         67.3557   94.4497    9.6825 Cl      1  UNL1       -0.0822
      8 C          67.0828   93.4504   12.0651 C.ar    1  UNL1        0.0116
      9 C          66.3191   92.6022   13.0384 C.ar    1  UNL1        0.0071
     10 C          65.0647   91.9050   12.6023 C.ar    1  UNL1        0.0739
     11 C          64.3009   91.0567   13.5756 C.ar    1  UNL1        0.2634
     12 O          64.7917   90.9057   14.9850 O.2     1  UNL1       -0.2669
     13 N          63.0465   90.3595   13.1395 N.ar    1  UNL1       -0.2785
     14 C          62.2828   89.5112   14.1128 C.3     1  UNL1        0.1369
     15 C          62.9595   88.3604   14.7967 C.ar    1  UNL1        0.0005
     16 C          63.9353   87.5077   14.0412 C.ar    1  UNL1       -0.0024
     17 C          64.6120   86.3569   14.7250 C.ar    1  UNL1       -0.0003
     18 C          64.3129   86.0588   16.1644 C.ar    1  UNL1       -0.0000
     19 C          63.3371   86.9115   16.9198 C.ar    1  UNL1       -0.0003
     20 C          62.6604   88.0623   16.2359 C.ar    1  UNL1       -0.0024
     21 C          61.6207   87.4399   10.2866 C.2     1  UNL1        0.2493
     22 O          61.8912   86.8944   11.6575 O.2     1  UNL1       -0.2699
     23 N          61.3257   88.8994   10.1049 N.am    1  UNL1       -0.2708
     24 C          61.7190   83.7841    5.5300 C.3     1  UNL1        0.0310
     25 C          61.6944   84.6981    6.7192 C.ar    1  UNL1       -0.0218
     26 C          60.4042   85.3267    7.1554 C.ar    1  UNL1       -0.0041
     27 C          60.3796   86.2406    8.3446 C.ar    1  UNL1        0.0042
     28 C          61.6453   86.5260    9.0975 C.ar    1  UNL1        0.0536
     29 C          62.9354   85.8973    8.6612 C.ar    1  UNL1        0.0042
     30 C          62.9600   84.9834    7.4721 C.ar    1  UNL1       -0.0041
     31 C          61.0553   89.4448    8.7340 C.3     1  UNL1        0.0955
     32 C          59.6544   89.4664    8.1983 C.3     1  UNL1        0.0383
     33 C          59.4142   89.3560    6.7218 C.3     1  UNL1        0.0669
     34 N          59.7793   90.4941    5.8154 N.3     1  UNL1       -0.3211
     35 H          59.1882   91.2986    6.0248 H       1  UNL1        0.1189
     36 H          59.6404   90.2136    4.8447 H       1  UNL1        0.1189
     37 C          60.0222   90.0300   12.0471 C.3     1  UNL1        0.0255
     38 C          59.1473   91.2030   11.7175 C.3     1  UNL1        0.0022
     39 C          59.6181   89.0738   13.1299 C.3     1  UNL1        0.0022
@<TRIPOS>BOND
     1    24    25    1
     2    25    26   ar
     3    26    27   ar
     4    27    28   ar
     5    28    21    1
     6    21    22    2
     7    21    23   am
     8    23    31    1
     9    31    32    1
    10    32    33    1
    11    33    34    1
    12    23     1    1
    13     1     2    1
    14     2     3   ar
    15     3     4   ar
    16     4     5   ar
    17     5     6   ar
    18     6     7    1
    19     6     8   ar
    20     8     9   ar
    21     9    10   ar
    22    10    11   ar
    23    11    12    2
    24    11    13   ar
    25    13    14    1
    26    14    15    1
    27    15    16   ar
    28    16    17   ar
    29    17    18   ar
    30    18    19   ar
    31    19    20   ar
    32     1    37    1
    33    37    38    1
    34    37    39    1
    35    28    29   ar
    36    29    30   ar
    37    30    25   ar
    38    13     2   ar
    39    20    15   ar
    40    10     4   ar
    41    34    35    1
    42    34    36    1
@<TRIPOS>MOLECULE
*****
 39 42 0 0 0
SMALL
GASTEIGER

@<TRIPOS>ATOM
      1 C          62.2606   89.0326   12.1539 C.3     1  UNL1        0.1323
      2 C          62.4909   87.5825   11.8468 C.ar    1  UNL1        0.1409
      3 N          62.7442   86.6109   12.9612 N.ar    1  UNL1       -0.2305
      4 C          62.9745   85.1608   12.6541 C.ar    1  UNL1        0.0881
      5 C          63.2278   84.1892   13.7684 C.ar    1  UNL1        0.0307
      6 C          63.4581   82.7392   13.4613 C.ar    1  UNL1        0.0592
      7 CL         63.7113   81.7675   14.5757 Cl      1  UNL1       -0.0822
      8 C          63.4352   82.2608   12.0398 C.ar    1  UNL1        0.0116
      9 C          63.1820   83.2324   10.9255 C.ar    1  UNL1        0.0071
     10 C          62.9517   84.6824   11.2326 C.ar    1  UNL1        0.0739
     11 C          62.6984   85.6541   10.1182 C.ar    1  UNL1        0.2634
     12 O          62.6756   85.1757    8.6967 O.2     1  UNL1       -0.2669
     13 N          62.4681   87.1041   10.4253 N.ar    1  UNL1       -0.2785
     14 C          62.2148   88.0758    9.3109 C.3     1  UNL1        0.1369
     15 C          60.9040   88.0559    8.5820 C.ar    1  UNL1        0.0005
     16 C          60.4324   89.2794    7.8534 C.ar    1  UNL1       -0.0024
     17 C          59.1216   89.2595    7.1244 C.ar    1  UNL1       -0.0003
     18 C          58.2824   88.0162    7.1240 C.ar    1  UNL1       -0.0000
     19 C          58.7541   86.7928    7.8526 C.ar    1  UNL1       -0.0003
     20 C          60.0649   86.8126    8.5815 C.ar    1  UNL1       -0.0024
     21 C          63.5726   90.0944   14.1290 C.2     1  UNL1        0.2493
     22 O          62.6242   89.4579   15.1013 O.2     1  UNL1       -0.2699
     23 N          63.3908   89.8818   12.6553 N.am    1  UNL1       -0.2708
     24 C          68.0937   93.4912   16.1345 C.3     1  UNL1        0.0310
     25 C          66.9634   92.6420   15.6332 C.ar    1  UNL1       -0.0218
     26 C          65.6460   92.6472   16.3505 C.ar    1  UNL1       -0.0041
     27 C          64.5157   91.7980   15.8491 C.ar    1  UNL1        0.0042
     28 C          64.7029   90.9436   14.6304 C.ar    1  UNL1        0.0536
     29 C          66.0203   90.9385   13.9131 C.ar    1  UNL1        0.0042
     30 C          67.1505   91.7877   14.4145 C.ar    1  UNL1       -0.0041
     31 C          64.3392   90.5183   11.6830 C.3     1  UNL1        0.0955
     32 C          64.0623   91.8957   11.1575 C.3     1  UNL1        0.0383
     33 C          65.1994   92.7893   10.7598 C.3     1  UNL1        0.0669
     34 N          65.6232   93.9104   11.6618 N.3     1  UNL1       -0.3211
     35 H          64.8752   94.6015   11.7197 H       1  UNL1        0.1189
     36 H          66.4637   94.3498   11.2863 H       1  UNL1        0.1189
     37 C          60.9000   89.6334   11.9596 C.3     1  UNL1        0.0255
     38 C          60.7270   90.8243   11.0642 C.3     1  UNL1        0.0022
     39 C          59.7124   89.0434   12.6607 C.3     1  UNL1        0.0022
@<TRIPOS>BOND
     1    24    25    1
     2    25    26   ar
     3    26    27   ar
     4    27    28   ar
     5    28    21    1
     6    21    22    2
     7    21    23   am
     8    23    31    1
     9    31    32    1
    10    32    33    1
    11    33    34    1
    12    23     1    1
    13     1     2    1
    14     2     3   ar
    15     3     4   ar
    16     4     5   ar
    17     5     6   ar
    18     6     7    1
    19     6     8   ar
    20     8     9   ar
    21     9    10   ar
    22    10    11   ar
    23    11    12    2
    24    11    13   ar
    25    13    14    1
    26    14    15    1
    27    15    16   ar
    28    16    17   ar
    29    17    18   ar
    30    18    19   ar
    31    19    20   ar
    32     1    37    1
    33    37    38    1
    34    37    39    1
    35    28    29   ar
    36    29    30   ar
    37    30    25   ar
    38    13     2   ar
    39    20    15   ar
    40    10     4   ar
    41    34    35    1
    42    34    36    1
@<TRIPOS>MOLECULE
*****
 39 42 0 0 0
SMALL
GASTEIGER

@<TRIPOS>ATOM
      1 C          64.5284   91.1945   13.3978 C.3     1  UNL1        0.1323
      2 C          63.7126   90.1893   12.6401 C.ar    1  UNL1        0.1409
      3 N          62.8412   90.6343   11.5032 N.ar    1  UNL1       -0.2305
      4 C          62.0253   89.6292   10.7455 C.ar    1  UNL1        0.0881
      5 C          61.1540   90.0742    9.6086 C.ar    1  UNL1        0.0307
      6 C          60.3382   89.0690    8.8510 C.ar    1  UNL1        0.0592
      7 CL         59.4667   89.5140    7.7140 Cl      1  UNL1       -0.0822
      8 C          60.3937   87.6188    9.2302 C.ar    1  UNL1        0.0116
      9 C          61.2651   87.1738   10.3672 C.ar    1  UNL1        0.0071
     10 C          62.0809   88.1790   11.1248 C.ar    1  UNL1        0.0739
     11 C          62.9523   87.7340   12.2618 C.ar    1  UNL1        0.2634
     12 O          63.0078   86.2838   12.6411 O.2     1  UNL1       -0.2669
     13 N          63.7681   88.7391   13.0194 N.ar    1  UNL1       -0.2785
     14 C          64.6395   88.2941   14.1564 C.3     1  UNL1        0.1369
     15 C          64.0464   87.5249   15.2994 C.ar    1  UNL1        0.0005
     16 C          64.2112   86.0355   15.3669 C.ar    1  UNL1       -0.0024
     17 C          63.6180   85.2663   16.5099 C.ar    1  UNL1       -0.0003
     18 C          62.8600   85.9865   17.5855 C.ar    1  UNL1       -0.0000
     19 C          62.6952   87.4759   17.5180 C.ar    1  UNL1       -0.0003
     20 C          63.2884   88.2451   16.3749 C.ar    1  UNL1       -0.0024
     21 C          65.1699   92.3589   11.1656 C.2     1  UNL1        0.2493
     22 O          64.4131   91.3127   10.4024 O.2     1  UNL1       -0.2699
     23 N          65.2276   92.2999   12.6634 N.am    1  UNL1       -0.2708
     24 C          67.9663   96.7804    8.2279 C.3     1  UNL1        0.0310
     25 C          67.2672   95.6751    8.9623 C.ar    1  UNL1       -0.0218
     26 C          67.8298   94.2847    8.9372 C.ar    1  UNL1       -0.0041
     27 C          67.1307   93.1794    9.6716 C.ar    1  UNL1        0.0042
     28 C          65.8690   93.4643   10.4312 C.ar    1  UNL1        0.0536
     29 C          65.3064   94.8546   10.4563 C.ar    1  UNL1        0.0042
     30 C          66.0055   95.9599    9.7218 C.ar    1  UNL1       -0.0041
     31 C          65.9843   93.3461   13.4266 C.3     1  UNL1        0.0955
     32 C          67.4259   93.1236   13.7763 C.3     1  UNL1        0.0383
     33 C          68.1705   91.9632   13.1854 C.3     1  UNL1        0.0669
     34 N          69.6580   91.8638   13.3510 N.3     1  UNL1       -0.3211
     35 H          70.1079   92.6289   12.8485 H       1  UNL1        0.1189
     36 H          69.9831   90.9728   12.9756 H       1  UNL1        0.1189
     37 C          64.6452   91.0943   14.8899 C.3     1  UNL1        0.0255
     38 C          63.4402   91.3228   15.7534 C.3     1  UNL1        0.0022
     39 C          65.9669   90.7654   15.5184 C.3     1  UNL1        0.0022
@<TRIPOS>BOND
     1    24    25    1
     2    25    26   ar
     3    26    27   ar
     4    27    28   ar
     5    28    21    1
     6    21    22    2
     7    21    23   am
     8    23    31    1
     9    31    32    1
    10    32    33    1
    11    33    34    1
    12    23     1    1
    13     1     2    1
    14     2     3   ar
    15     3     4   ar
    16     4     5   ar
    17     5     6   ar
    18     6     7    1
    19     6     8   ar
    20     8     9   ar
    21     9    10   ar
    22    10    11   ar
    23    11    12    2
    24    11    13   ar
    25    13    14    1
    26    14    15    1
    27    15    16   ar
    28    16    17   ar
    29    17    18   ar
    30    18    19   ar
    31    19    20   ar
    32     1    37    1
    33    37    38    1
    34    37    39    1
    35    28    29   ar
    36    29    30   ar
    37    30    25   ar
    38    13     2   ar
    39    20    15   ar
    40    10     4   ar
    41    34    35    1
    42    34    36    1
@<TRIPOS>MOLECULE
*****
 39 42 0 0 0
SMALL
GASTEIGER

@<TRIPOS>ATOM
      1 C          63.5327   85.0096   13.1624 C.3     1  UNL1        0.1323
      2 C          62.9686   86.1728   12.4017 C.ar    1  UNL1        0.1409
      3 N          61.9704   85.9397   11.3065 N.ar    1  UNL1       -0.2305
      4 C          61.4063   87.1029   10.5458 C.ar    1  UNL1        0.0881
      5 C          60.4081   86.8697    9.4506 C.ar    1  UNL1        0.0307
      6 C          59.8440   88.0329    8.6899 C.ar    1  UNL1        0.0592
      7 CL         58.8458   87.7998    7.5947 Cl      1  UNL1       -0.0822
      8 C          60.2780   89.4293    9.0244 C.ar    1  UNL1        0.0116
      9 C          61.2761   89.6624   10.1195 C.ar    1  UNL1        0.0071
     10 C          61.8403   88.4993   10.8802 C.ar    1  UNL1        0.0739
     11 C          62.8384   88.7324   11.9754 C.ar    1  UNL1        0.2634
     12 O          63.2724   90.1287   12.3098 O.2     1  UNL1       -0.2669
     13 N          63.4026   87.5692   12.7361 N.ar    1  UNL1       -0.2785
     14 C          64.4007   87.8023   13.8313 C.3     1  UNL1        0.1369
     15 C          64.3095   89.0365   14.6789 C.ar    1  UNL1        0.0005
     16 C          63.3423   89.0900   15.8242 C.ar    1  UNL1       -0.0024
     17 C          63.2511   90.3242   16.6718 C.ar    1  UNL1       -0.0003
     18 C          64.1272   91.5049   16.3741 C.ar    1  UNL1       -0.0000
     19 C          65.0943   91.4514   15.2288 C.ar    1  UNL1       -0.0003
     20 C          65.1855   90.2172   14.3812 C.ar    1  UNL1       -0.0024
     21 C          62.5998   82.5969   12.9205 C.2     1  UNL1        0.2493
     22 O          61.5543   82.8976   13.9533 O.2     1  UNL1       -0.2699
     23 N          63.5890   83.6529   12.5251 N.am    1  UNL1       -0.2708
     24 C          62.8248   77.1701   10.3712 C.3     1  UNL1        0.0310
     25 C          62.7685   78.5268   11.0085 C.ar    1  UNL1       -0.0218
     26 C          62.5217   78.6533   12.4827 C.ar    1  UNL1       -0.0041
     27 C          62.4655   80.0100   13.1201 C.ar    1  UNL1        0.0042
     28 C          62.6560   81.2402   12.2832 C.ar    1  UNL1        0.0536
     29 C          62.9028   81.1137   10.8091 C.ar    1  UNL1        0.0042
     30 C          62.9590   79.7570   10.1717 C.ar    1  UNL1       -0.0041
     31 C          64.6344   83.3522   11.4923 C.3     1  UNL1        0.0955
     32 C          64.6013   84.0517   10.1658 C.3     1  UNL1        0.0383
     33 C          63.3840   83.9512    9.2951 C.3     1  UNL1        0.0669
     34 N          63.1182   84.9976    8.2539 N.3     1  UNL1       -0.3211
     35 H          62.9288   85.8903    8.7096 H       1  UNL1        0.1189
     36 H          62.3105   84.7233    7.6946 H       1  UNL1        0.1189
     37 C          64.0406   85.2031   14.5605 C.3     1  UNL1        0.0255
     38 C          63.0725   85.3376   15.6982 C.3     1  UNL1        0.0022
     39 C          65.5167   85.2621   14.8208 C.3     1  UNL1        0.0022
@<TRIPOS>BOND
     1    24    25    1
     2    25    26   ar
     3    26    27   ar
     4    27    28   ar
     5    28    21    1
     6    21    22    2
     7    21    23   am
     8    23    31    1
     9    31    32    1
    10    32    33    1
    11    33    34    1
    12    23     1    1
    13     1     2    1
    14     2     3   ar
    15     3     4   ar
    16     4     5   ar
    17     5     6   ar
    18     6     7    1
    19     6     8   ar
    20     8     9   ar
    21     9    10   ar
    22    10    11   ar
    23    11    12    2
    24    11    13   ar
    25    13    14    1
    26    14    15    1
    27    15    16   ar
    28    16    17   ar
    29    17    18   ar
    30    18    19   ar
    31    19    20   ar
    32     1    37    1
    33    37    38    1
    34    37    39    1
    35    28    29   ar
    36    29    30   ar
    37    30    25   ar
    38    13     2   ar
    39    20    15   ar
    40    10     4   ar
    41    34    35    1
    42    34    36    1
@<TRIPOS>MOLECULE
*****
 39 42 0 0 0
SMALL
GASTEIGER

@<TRIPOS>ATOM
      1 C          63.2144   89.5060   12.4266 C.3     1  UNL1        0.1323
      2 C          63.1243   88.0100   12.4906 C.ar    1  UNL1        0.1409
      3 N          63.7550   87.2689   13.6321 N.ar    1  UNL1       -0.2305
      4 C          63.6649   85.7729   13.6962 C.ar    1  UNL1        0.0881
      5 C          64.2955   85.0318   14.8376 C.ar    1  UNL1        0.0307
      6 C          64.2054   83.5359   14.9016 C.ar    1  UNL1        0.0592
      7 CL         64.8361   82.7947   16.0431 Cl      1  UNL1       -0.0822
      8 C          63.4847   82.7811   13.8242 C.ar    1  UNL1        0.0116
      9 C          62.8541   83.5222   12.6827 C.ar    1  UNL1        0.0071
     10 C          62.9442   85.0181   12.6187 C.ar    1  UNL1        0.0739
     11 C          62.3135   85.7593   11.4772 C.ar    1  UNL1        0.2634
     12 O          61.5928   85.0046   10.3998 O.2     1  UNL1       -0.2669
     13 N          62.4036   87.2552   11.4132 N.ar    1  UNL1       -0.2785
     14 C          61.7730   87.9965   10.2717 C.3     1  UNL1        0.1369
     15 C          61.1286   87.2378    9.1495 C.ar    1  UNL1        0.0005
     16 C          61.9476   86.3052    8.3072 C.ar    1  UNL1       -0.0024
     17 C          61.3033   85.5465    7.1850 C.ar    1  UNL1       -0.0003
     18 C          59.8398   85.7205    6.9052 C.ar    1  UNL1       -0.0000
     19 C          59.0209   86.6531    7.7475 C.ar    1  UNL1       -0.0003
     20 C          59.6653   87.4117    8.8697 C.ar    1  UNL1       -0.0024
     21 C          65.1152   91.2546   12.7080 C.2     1  UNL1        0.2493
     22 O          65.0694   91.5413   11.2364 O.2     1  UNL1       -0.2699
     23 N          64.1877   90.2369   13.3031 N.am    1  UNL1       -0.2708
     24 C          69.0085   94.1784   16.2143 C.3     1  UNL1        0.0310
     25 C          68.0352   93.4475   15.3377 C.ar    1  UNL1       -0.0218
     26 C          67.9956   91.9480   15.3487 C.ar    1  UNL1       -0.0041
     27 C          67.0223   91.2170   14.4721 C.ar    1  UNL1        0.0042
     28 C          66.0886   91.9856   13.5846 C.ar    1  UNL1        0.0536
     29 C          66.1282   93.4850   13.5737 C.ar    1  UNL1        0.0042
     30 C          67.1015   94.2159   14.4503 C.ar    1  UNL1       -0.0041
     31 C          64.2335   89.9502   14.7747 C.3     1  UNL1        0.0955
     32 C          63.4676   90.8150   15.7315 C.3     1  UNL1        0.0383
     33 C          64.1688   91.4475   16.8970 C.3     1  UNL1        0.0669
     34 N          64.4663   92.9177   16.8854 N.3     1  UNL1       -0.3211
     35 H          65.1414   93.1222   16.1486 H       1  UNL1        0.1189
     36 H          64.8539   93.1932   17.7878 H       1  UNL1        0.1189
     37 C          62.3312   90.2709   11.4860 C.3     1  UNL1        0.0255
     38 C          60.9023   90.5425   11.8526 C.3     1  UNL1        0.0022
     39 C          62.8768   90.7642   10.1787 C.3     1  UNL1        0.0022
@<TRIPOS>BOND
     1    24    25    1
     2    25    26   ar
     3    26    27   ar
     4    27    28   ar
     5    28    21    1
     6    21    22    2
     7    21    23   am
     8    23    31    1
     9    31    32    1
    10    32    33    1
    11    33    34    1
    12    23     1    1
    13     1     2    1
    14     2     3   ar
    15     3     4   ar
    16     4     5   ar
    17     5     6   ar
    18     6     7    1
    19     6     8   ar
    20     8     9   ar
    21     9    10   ar
    22    10    11   ar
    23    11    12    2
    24    11    13   ar
    25    13    14    1
    26    14    15    1
    27    15    16   ar
    28    16    17   ar
    29    17    18   ar
    30    18    19   ar
    31    19    20   ar
    32     1    37    1
    33    37    38    1
    34    37    39    1
    35    28    29   ar
    36    29    30   ar
    37    30    25   ar
    38    13     2   ar
    39    20    15   ar
    40    10     4   ar
    41    34    35    1
    42    34    36    1
@<TRIPOS>MOLECULE
*****
 39 42 0 0 0
SMALL
GASTEIGER

@<TRIPOS>ATOM
      1 C          63.6357   89.6310   13.1296 C.3     1  UNL1        0.1323
      2 C          62.8864   88.8210   12.1134 C.ar    1  UNL1        0.1409
      3 N          62.0316   89.5072   11.0896 N.ar    1  UNL1       -0.2305
      4 C          61.2823   88.6972   10.0734 C.ar    1  UNL1        0.0881
      5 C          60.4274   89.3835    9.0496 C.ar    1  UNL1        0.0307
      6 C          59.6782   88.5735    8.0335 C.ar    1  UNL1        0.0592
      7 CL         58.8233   89.2597    7.0096 Cl      1  UNL1       -0.0822
      8 C          59.7839   87.0772    8.0412 C.ar    1  UNL1        0.0116
      9 C          60.6388   86.3910    9.0650 C.ar    1  UNL1        0.0071
     10 C          61.3880   87.2010   10.0811 C.ar    1  UNL1        0.0739
     11 C          62.2429   86.5147   11.1049 C.ar    1  UNL1        0.2634
     12 O          62.3486   85.0185   11.1126 O.2     1  UNL1       -0.2669
     13 N          62.9921   87.3247   12.1211 N.ar    1  UNL1       -0.2785
     14 C          63.8470   86.6384   13.1449 C.3     1  UNL1        0.1369
     15 C          63.5851   85.2053   13.5018 C.ar    1  UNL1        0.0005
     16 C          64.4232   84.1170   12.8990 C.ar    1  UNL1       -0.0024
     17 C          64.1612   82.6838   13.2559 C.ar    1  UNL1       -0.0003
     18 C          63.0612   82.3389   14.2156 C.ar    1  UNL1       -0.0000
     19 C          62.2232   83.4271   14.8184 C.ar    1  UNL1       -0.0003
     20 C          62.4852   84.8603   14.4615 C.ar    1  UNL1       -0.0024
     21 C          64.5310   91.1738   11.2406 C.2     1  UNL1        0.2493
     22 O          63.8190   90.3369   10.2196 O.2     1  UNL1       -0.2699
     23 N          64.4393   90.8209   12.6957 N.am    1  UNL1       -0.2708
     24 C          67.7455   95.9334    9.5049 C.3     1  UNL1        0.0310
     25 C          66.9419   94.7435    9.9389 C.ar    1  UNL1       -0.0218
     26 C          67.5291   93.3665    9.8430 C.ar    1  UNL1       -0.0041
     27 C          66.7255   92.1766   10.2769 C.ar    1  UNL1        0.0042
     28 C          65.3346   92.3637   10.8067 C.ar    1  UNL1        0.0536
     29 C          64.7475   93.7407   10.9026 C.ar    1  UNL1        0.0042
     30 C          65.5511   94.9306   10.4687 C.ar    1  UNL1       -0.0041
     31 C          65.1513   91.6578   13.7167 C.3     1  UNL1        0.0955
     32 C          66.5969   91.3993   14.0224 C.3     1  UNL1        0.0383
     33 C          67.5516   92.5481   14.1595 C.3     1  UNL1        0.0669
     34 N          69.0172   92.2874   14.3441 N.3     1  UNL1       -0.3211
     35 H          69.1705   91.8299   15.2428 H       1  UNL1        0.1189
     36 H          69.5252   93.1716   14.3217 H       1  UNL1        0.1189
     37 C          63.5813   89.2510   14.5797 C.3     1  UNL1        0.0255
     38 C          64.6061   88.3152   15.1487 C.3     1  UNL1        0.0022
     39 C          62.5020   89.8069   15.4606 C.3     1  UNL1        0.0022
@<TRIPOS>BOND
     1    24    25    1
     2    25    26   ar
     3    26    27   ar
     4    27    28   ar
     5    28    21    1
     6    21    22    2
     7    21    23   am
     8    23    31    1
     9    31    32    1
    10    32    33    1
    11    33    34    1
    12    23     1    1
    13     1     2    1
    14     2     3   ar
    15     3     4   ar
    16     4     5   ar
    17     5     6   ar
    18     6     7    1
    19     6     8   ar
    20     8     9   ar
    21     9    10   ar
    22    10    11   ar
    23    11    12    2
    24    11    13   ar
    25    13    14    1
    26    14    15    1
    27    15    16   ar
    28    16    17   ar
    29    17    18   ar
    30    18    19   ar
    31    19    20   ar
    32     1    37    1
    33    37    38    1
    34    37    39    1
    35    28    29   ar
    36    29    30   ar
    37    30    25   ar
    38    13     2   ar
    39    20    15   ar
    40    10     4   ar
    41    34    35    1
    42    34    36    1
@<TRIPOS>MOLECULE
*****
 39 42 0 0 0
SMALL
GASTEIGER

@<TRIPOS>ATOM
      1 C          63.4199   85.0126   13.6240 C.3     1  UNL1        0.1323
      2 C          62.9250   86.1079   12.7264 C.ar    1  UNL1        0.1409
      3 N          61.9130   85.8052   11.6615 N.ar    1  UNL1       -0.2305
      4 C          61.4181   86.9005   10.7639 C.ar    1  UNL1        0.0881
      5 C          60.4062   86.5977    9.6990 C.ar    1  UNL1        0.0307
      6 C          59.9113   87.6930    8.8015 C.ar    1  UNL1        0.0592
      7 CL         58.8993   87.3903    7.7365 Cl      1  UNL1       -0.0822
      8 C          60.4285   89.0910    8.9690 C.ar    1  UNL1        0.0116
      9 C          61.4405   89.3937   10.0339 C.ar    1  UNL1        0.0071
     10 C          61.9353   88.2985   10.9314 C.ar    1  UNL1        0.0739
     11 C          62.9474   88.6012   11.9964 C.ar    1  UNL1        0.2634
     12 O          63.4646   89.9992   12.1639 O.2     1  UNL1       -0.2669
     13 N          63.4422   87.5059   12.8939 N.ar    1  UNL1       -0.2785
     14 C          64.4542   87.8087   13.9589 C.3     1  UNL1        0.1369
     15 C          64.3563   89.0815   14.7465 C.ar    1  UNL1        0.0005
     16 C          63.3625   89.1973   15.8641 C.ar    1  UNL1       -0.0024
     17 C          63.2645   90.4701   16.6517 C.ar    1  UNL1       -0.0003
     18 C          64.1604   91.6271   16.3217 C.ar    1  UNL1       -0.0000
     19 C          65.1542   91.5113   15.2042 C.ar    1  UNL1       -0.0003
     20 C          65.2521   90.2384   14.4166 C.ar    1  UNL1       -0.0024
     21 C          63.5333   83.0925   11.8774 C.2     1  UNL1        0.2493
     22 O          64.1110   84.0424   10.8706 O.2     1  UNL1       -0.2699
     23 N          63.1877   83.5776   13.2542 N.am    1  UNL1       -0.2708
     24 C          62.6047   77.3523   10.3982 C.3     1  UNL1        0.0310
     25 C          62.8368   78.7874   10.7680 C.ar    1  UNL1       -0.0218
     26 C          62.9984   79.8220    9.6939 C.ar    1  UNL1       -0.0041
     27 C          63.2305   81.2570   10.0637 C.ar    1  UNL1        0.0042
     28 C          63.3011   81.6574   11.5076 C.ar    1  UNL1        0.0536
     29 C          63.1396   80.6229   12.5816 C.ar    1  UNL1        0.0042
     30 C          62.9074   79.1878   12.2118 C.ar    1  UNL1       -0.0041
     31 C          62.6100   82.6276   14.2610 C.3     1  UNL1        0.0955
     32 C          61.1555   82.2657   14.2023 C.3     1  UNL1        0.0383
     33 C          60.7402   80.8244   14.2149 C.3     1  UNL1        0.0669
     34 N          59.2980   80.4611   14.4103 N.3     1  UNL1       -0.3211
     35 H          59.0033   80.7319   15.3485 H       1  UNL1        0.1189
     36 H          59.1824   79.4543   14.2949 H       1  UNL1        0.1189
     37 C          64.1468   85.3524   14.8912 C.3     1  UNL1        0.0255
     38 C          65.6464   85.3839   14.9102 C.3     1  UNL1        0.0022
     39 C          63.3743   85.6606   16.1395 C.3     1  UNL1        0.0022
@<TRIPOS>BOND
     1    24    25    1
     2    25    26   ar
     3    26    27   ar
     4    27    28   ar
     5    28    21    1
     6    21    22    2
     7    21    23   am
     8    23    31    1
     9    31    32    1
    10    32    33    1
    11    33    34    1
    12    23     1    1
    13     1     2    1
    14     2     3   ar
    15     3     4   ar
    16     4     5   ar
    17     5     6   ar
    18     6     7    1
    19     6     8   ar
    20     8     9   ar
    21     9    10   ar
    22    10    11   ar
    23    11    12    2
    24    11    13   ar
    25    13    14    1
    26    14    15    1
    27    15    16   ar
    28    16    17   ar
    29    17    18   ar
    30    18    19   ar
    31    19    20   ar
    32     1    37    1
    33    37    38    1
    34    37    39    1
    35    28    29   ar
    36    29    30   ar
    37    30    25   ar
    38    13     2   ar
    39    20    15   ar
    40    10     4   ar
    41    34    35    1
    42    34    36    1
