@<TRIPOS>MOLECULE
*****
 43 47 0 0 0
SMALL
GASTEIGER

@<TRIPOS>ATOM
      1 C          63.1436   88.1161   17.2999 C.3     1  UNL1        0.0312
      2 C          63.4975   88.2481   15.8482 C.2     1  UNL1        0.0136
      3 C          63.9331   89.5747   15.3001 C.2     1  UNL1        0.0107
      4 C          64.2869   89.7068   13.8485 C.2     1  UNL1        0.0510
      5 C          64.2053   88.5122   12.9449 C.2     1  UNL1        0.0613
      6 C          63.7697   87.1856   13.4930 C.2     1  UNL1        0.2246
      7 N          63.5951   85.8421   12.8492 N.2     1  UNL1       -0.0378
      8 C          63.1333   84.8797   13.9030 C.2     1  UNL1        0.3605
      9 N          63.0225   85.6284   15.1981 N.2     1  UNL1       -0.0547
     10 C          63.4159   87.0536   14.9447 C.3     1  UNL1        0.2976
     11 N          64.7225   91.0334   13.3004 N.pl3   1  UNL1       -0.3040
     12 C          64.2803   91.4614   11.9324 C.3     1  UNL1        0.1124
     13 C          64.7159   92.7880   11.3843 C.3     1  UNL1        0.1181
     14 N          65.5936   93.6866   12.2041 N.am    1  UNL1       -0.2425
     15 C          66.0292   95.0132   11.6561 C.2     1  UNL1        0.4047
     16 O          66.9069   95.9118   12.4759 O.2     1  UNL1       -0.2262
     17 C          66.0358   93.2586   13.5721 C.3     1  UNL1        0.1181
     18 C          65.6002   91.9320   14.1202 C.3     1  UNL1        0.1124
     19 O          65.5870   95.4413   10.2881 O.3     1  UNL1       -0.4418
     20 C          66.6049   95.6945    9.2158 C.3     1  UNL1        0.1378
     21 C          67.4163   94.5346    9.7121 C.3     1  UNL1        0.0437
     22 C          65.7935   96.8544    8.7196 C.3     1  UNL1        0.0437
     23 C          67.6228   95.9478    8.1436 C.3     1  UNL1        0.0437
     24 C          62.8347   83.4241   13.6978 C.3     1  UNL1        0.2246
     25 C          62.8297   82.8475   12.3131 C.2     1  UNL1        0.0436
     26 C          62.5311   81.3918   12.1080 C.2     1  UNL1        0.0288
     27 C          62.2374   80.5129   13.2875 C.2     1  UNL1        0.0896
     28 N          62.2424   81.0896   14.6722 N.am    1  UNL1       -0.1770
     29 C          62.5410   82.5452   14.8773 C.2     1  UNL1        0.2627
     30 O          62.5459   83.1219   16.2620 O.2     1  UNL1       -0.2719
     31 N          63.1234   83.7263   11.1336 N.pl3   1  UNL1       -0.3329
     32 H          64.0302   83.7498   10.7509 H       1  UNL1        0.1466
     33 C          62.0355   84.5692   10.5370 C.3     1  UNL1        0.1211
     34 C          62.3114   85.3955    9.3158 C.3     1  UNL1        0.1522
     35 O          63.3879   84.9808    8.3571 O.3     1  UNL1       -0.3783
     36 H          63.8047   84.1637    8.6727 H       1  UNL1        0.2109
     37 C          61.5107   86.6365    9.0534 C.ar    1  UNL1        0.0067
     38 C          60.3995   86.6131    8.0462 C.ar    1  UNL1       -0.0018
     39 C          59.5988   87.8541    7.7838 C.ar    1  UNL1        0.0006
     40 C          59.9094   89.1186    8.5286 C.ar    1  UNL1        0.0114
     41 C          61.0206   89.1419    9.5359 C.ar    1  UNL1        0.0574
     42 CL         61.3312   90.4063   10.2807 Cl      1  UNL1       -0.0823
     43 C          61.8213   87.9009    9.7983 C.ar    1  UNL1        0.0095
@<TRIPOS>BOND
     1     1     2    1
     2     2     3    2
     3     3     4    1
     4     4    11    1
     5    11    12    1
     6    12    13    1
     7    13    14    1
     8    14    15   am
     9    15    16    2
    10    15    19    1
    11    19    20    1
    12    20    21    1
    13    20    22    1
    14    20    23    1
    15    14    17    1
    16    17    18    1
    17     4     5    2
    18     5     6    1
    19     6     7    2
    20     7     8    1
    21     8    24    1
    22    24    25    1
    23    25    31    1
    24    31    33    1
    25    33    34    1
    26    34    35    1
    27    34    37    1
    28    37    38   ar
    29    38    39   ar
    30    39    40   ar
    31    40    41   ar
    32    41    42    1
    33    41    43   ar
    34    25    26    2
    35    26    27    1
    36    27    28    2
    37    28    29    1
    38    29    30    2
    39     8     9    2
    40     9    10    1
    41    10     2    1
    42    18    11    1
    43    10     6    1
    44    29    24    1
    45    43    37   ar
    46    31    32    1
    47    35    36    1
@<TRIPOS>MOLECULE
*****
 43 47 0 0 0
SMALL
GASTEIGER

@<TRIPOS>ATOM
      1 C          60.0056   87.3705    9.5695 C.3     1  UNL1        0.0312
      2 C          61.2489   87.5776   10.3827 C.2     1  UNL1        0.0136
      3 C          61.8682   88.9408   10.4722 C.2     1  UNL1        0.0107
      4 C          63.1115   89.1478   11.2854 C.2     1  UNL1        0.0510
      5 C          63.7355   87.9916   12.0092 C.2     1  UNL1        0.0613
      6 C          63.1161   86.6284   11.9198 C.2     1  UNL1        0.2246
      7 N          63.5029   85.3090   12.5195 N.2     1  UNL1       -0.0378
      8 C          62.4986   84.2865   12.0768 C.2     1  UNL1        0.3605
      9 N          61.4912   84.9740   11.2036 N.2     1  UNL1       -0.0547
     10 C          61.8728   86.4214   11.1065 C.3     1  UNL1        0.2976
     11 N          63.7308   90.5111   11.3748 N.pl3   1  UNL1       -0.3040
     12 C          63.5710   91.4832   10.2436 C.3     1  UNL1        0.1124
     13 C          64.1904   92.8464   10.3330 C.3     1  UNL1        0.1181
     14 N          64.9695   93.2376   11.5536 N.am    1  UNL1       -0.2425
     15 C          65.5888   94.6008   11.6431 C.2     1  UNL1        0.4047
     16 O          66.3679   94.9920   12.8637 O.2     1  UNL1       -0.2262
     17 C          65.1293   92.2656   12.6848 C.3     1  UNL1        0.1181
     18 C          64.5099   90.9023   12.5954 C.3     1  UNL1        0.1124
     19 O          65.4291   95.5729   10.5119 O.3     1  UNL1       -0.4418
     20 C          66.4909   95.6781    9.4577 C.3     1  UNL1        0.1378
     21 C          65.7803   96.8558    8.8595 C.3     1  UNL1        0.0437
     22 C          67.2015   94.5003   10.0561 C.3     1  UNL1        0.0437
     23 C          67.5528   95.7832    8.4036 C.3     1  UNL1        0.0437
     24 C          62.5013   82.8319   12.4431 C.3     1  UNL1        0.2246
     25 C          62.1519   82.4094   13.8393 C.2     1  UNL1        0.0436
     26 C          62.1546   80.9548   14.2055 C.2     1  UNL1        0.0288
     27 C          62.5066   79.9227   13.1755 C.2     1  UNL1        0.0896
     28 N          62.8559   80.3452   11.7793 N.am    1  UNL1       -0.1770
     29 C          62.8533   81.7998   11.4131 C.2     1  UNL1        0.2627
     30 O          63.2026   82.2223   10.0169 O.2     1  UNL1       -0.2719
     31 N          61.7999   83.4415   14.8693 N.pl3   1  UNL1       -0.3329
     32 H          60.9209   83.8840   14.8423 H       1  UNL1        0.1466
     33 C          62.7871   83.7993   15.9404 C.3     1  UNL1        0.1211
     34 C          63.8162   84.8609   15.6875 C.3     1  UNL1        0.1522
     35 O          65.0831   84.5194   14.9607 O.3     1  UNL1       -0.3783
     36 H          65.0777   83.5782   14.7262 H       1  UNL1        0.2109
     37 C          63.5783   86.2641   16.1614 C.ar    1  UNL1        0.0067
     38 C          62.8443   86.5074   17.4466 C.ar    1  UNL1       -0.0018
     39 C          62.6064   87.9105   17.9205 C.ar    1  UNL1        0.0006
     40 C          63.1027   89.0705   17.1091 C.ar    1  UNL1        0.0114
     41 C          63.8368   88.8272   15.8239 C.ar    1  UNL1        0.0574
     42 CL         64.3330   89.9871   15.0125 Cl      1  UNL1       -0.0823
     43 C          64.0746   87.4240   15.3500 C.ar    1  UNL1        0.0095
@<TRIPOS>BOND
     1     1     2    1
     2     2     3    2
     3     3     4    1
     4     4    11    1
     5    11    12    1
     6    12    13    1
     7    13    14    1
     8    14    15   am
     9    15    16    2
    10    15    19    1
    11    19    20    1
    12    20    21    1
    13    20    22    1
    14    20    23    1
    15    14    17    1
    16    17    18    1
    17     4     5    2
    18     5     6    1
    19     6     7    2
    20     7     8    1
    21     8    24    1
    22    24    25    1
    23    25    31    1
    24    31    33    1
    25    33    34    1
    26    34    35    1
    27    34    37    1
    28    37    38   ar
    29    38    39   ar
    30    39    40   ar
    31    40    41   ar
    32    41    42    1
    33    41    43   ar
    34    25    26    2
    35    26    27    1
    36    27    28    2
    37    28    29    1
    38    29    30    2
    39     8     9    2
    40     9    10    1
    41    10     2    1
    42    18    11    1
    43    10     6    1
    44    29    24    1
    45    43    37   ar
    46    31    32    1
    47    35    36    1
@<TRIPOS>MOLECULE
*****
 43 47 0 0 0
SMALL
GASTEIGER

@<TRIPOS>ATOM
      1 C          63.6457   96.8551    0.8137 C.3     1  UNL1        0.0312
      2 C          63.0288   95.5107    0.5644 C.2     1  UNL1        0.0136
      3 C          62.4289   94.7383    1.7018 C.2     1  UNL1        0.0107
      4 C          61.8120   93.3941    1.4526 C.2     1  UNL1        0.0510
      5 C          61.7949   92.8220    0.0660 C.2     1  UNL1        0.0613
      6 C          62.3948   93.5944   -1.0713 C.2     1  UNL1        0.2246
      7 N          62.5241   93.2890   -2.5342 N.2     1  UNL1       -0.0378
      8 C          63.2210   94.4446   -3.1891 C.2     1  UNL1        0.3605
      9 N          63.5223   95.4642   -2.1310 N.2     1  UNL1       -0.0547
     10 C          63.0117   94.9388   -0.8221 C.3     1  UNL1        0.2976
     11 N          61.2122   92.6216    2.5900 N.pl3   1  UNL1       -0.3040
     12 C          62.0720   91.7078    3.4121 C.3     1  UNL1        0.1124
     13 C          61.4722   90.9355    4.5494 C.3     1  UNL1        0.1181
     14 N          60.0125   91.0768    4.8648 N.am    1  UNL1       -0.2425
     15 C          59.4126   90.3045    6.0021 C.2     1  UNL1        0.4047
     16 O          57.9530   90.4459    6.3174 O.2     1  UNL1       -0.2262
     17 C          59.1527   91.9906    4.0427 C.3     1  UNL1        0.1181
     18 C          59.7525   92.7630    2.9054 C.3     1  UNL1        0.1124
     19 O          60.2724   89.3907    6.8242 O.3     1  UNL1       -0.4418
     20 C          59.6484   88.5077    7.8639 C.3     1  UNL1        0.1378
     21 C          60.0998   89.4530    8.9375 C.3     1  UNL1        0.0437
     22 C          59.1970   87.5625    6.7901 C.3     1  UNL1        0.0437
     23 C          59.0244   87.6247    8.9035 C.3     1  UNL1        0.0437
     24 C          63.5574   94.5604   -4.6463 C.3     1  UNL1        0.2246
     25 C          63.0461   95.7231   -5.4440 C.2     1  UNL1        0.0436
     26 C          63.3826   95.8388   -6.9013 C.2     1  UNL1        0.0288
     27 C          64.2304   94.7917   -7.5607 C.2     1  UNL1        0.0896
     28 N          64.7418   93.6289   -6.7629 N.am    1  UNL1       -0.1770
     29 C          64.4052   93.5133   -5.3057 C.2     1  UNL1        0.2627
     30 O          64.9166   92.3505   -4.5079 O.2     1  UNL1       -0.2719
     31 N          62.1983   96.7702   -4.7847 N.pl3   1  UNL1       -0.3329
     32 H          62.6235   97.5196   -4.3083 H       1  UNL1        0.1466
     33 C          60.7028   96.6757   -4.8512 C.3     1  UNL1        0.1211
     34 C          60.0137   95.4023   -4.4594 C.3     1  UNL1        0.1522
     35 O          59.7888   94.3265   -5.4803 O.3     1  UNL1       -0.3783
     36 H          60.1463   94.6124   -6.3355 H       1  UNL1        0.2109
     37 C          59.5494   95.2046   -3.0469 C.ar    1  UNL1        0.0067
     38 C          59.9044   96.2111   -1.9929 C.ar    1  UNL1       -0.0018
     39 C          59.4402   96.0135   -0.5803 C.ar    1  UNL1        0.0006
     40 C          58.6210   94.8092   -0.2216 C.ar    1  UNL1        0.0114
     41 C          58.2660   93.8027   -1.2756 C.ar    1  UNL1        0.0574
     42 CL         57.4467   92.5985   -0.9169 Cl      1  UNL1       -0.0823
     43 C          58.7302   94.0004   -2.6882 C.ar    1  UNL1        0.0095
@<TRIPOS>BOND
     1     1     2    1
     2     2     3    2
     3     3     4    1
     4     4    11    1
     5    11    12    1
     6    12    13    1
     7    13    14    1
     8    14    15   am
     9    15    16    2
    10    15    19    1
    11    19    20    1
    12    20    21    1
    13    20    22    1
    14    20    23    1
    15    14    17    1
    16    17    18    1
    17     4     5    2
    18     5     6    1
    19     6     7    2
    20     7     8    1
    21     8    24    1
    22    24    25    1
    23    25    31    1
    24    31    33    1
    25    33    34    1
    26    34    35    1
    27    34    37    1
    28    37    38   ar
    29    38    39   ar
    30    39    40   ar
    31    40    41   ar
    32    41    42    1
    33    41    43   ar
    34    25    26    2
    35    26    27    1
    36    27    28    2
    37    28    29    1
    38    29    30    2
    39     8     9    2
    40     9    10    1
    41    10     2    1
    42    18    11    1
    43    10     6    1
    44    29    24    1
    45    43    37   ar
    46    31    32    1
    47    35    36    1
@<TRIPOS>MOLECULE
*****
 43 47 0 0 0
SMALL
GASTEIGER

@<TRIPOS>ATOM
      1 C          59.4090   88.9563   12.2431 C.3     1  UNL1        0.0312
      2 C          60.0254   88.5738   10.9302 C.2     1  UNL1        0.0136
      3 C          59.7148   89.3681    9.6962 C.2     1  UNL1        0.0107
      4 C          60.3311   88.9857    8.3833 C.2     1  UNL1        0.0510
      5 C          61.2581   87.8089    8.3042 C.2     1  UNL1        0.0613
      6 C          61.5686   87.0147    9.5382 C.2     1  UNL1        0.2246
      7 N          62.4386   85.8143    9.7666 N.2     1  UNL1       -0.0378
      8 C          62.3599   85.4548   11.2208 C.2     1  UNL1        0.3605
      9 N          61.4413   86.4331   11.8911 N.2     1  UNL1       -0.0547
     10 C          60.9523   87.3971   10.8512 C.3     1  UNL1        0.2976
     11 N          60.0205   89.7800    7.1492 N.pl3   1  UNL1       -0.3040
     12 C          61.1358   90.3465    6.3215 C.3     1  UNL1        0.1124
     13 C          60.8253   91.1408    5.0875 C.3     1  UNL1        0.1181
     14 N          59.3994   91.3685    4.6813 N.am    1  UNL1       -0.2425
     15 C          59.0888   92.1627    3.4474 C.2     1  UNL1        0.4047
     16 O          57.6629   92.3905    3.0412 O.2     1  UNL1       -0.2262
     17 C          58.2841   90.8020    5.5091 C.3     1  UNL1        0.1181
     18 C          58.5947   90.0077    6.7430 C.3     1  UNL1        0.1124
     19 O          60.2041   92.7293    2.6196 O.3     1  UNL1       -0.4418
     20 C          59.8942   93.6111    1.4464 C.3     1  UNL1        0.1378
     21 C          60.1111   94.8245    2.3011 C.3     1  UNL1        0.0437
     22 C          59.6772   92.3976    0.5917 C.3     1  UNL1        0.0437
     23 C          59.5843   94.4928    0.2732 C.3     1  UNL1        0.0437
     24 C          63.0743   84.3169   11.8876 C.3     1  UNL1        0.2246
     25 C          63.4884   84.4304   13.3248 C.2     1  UNL1        0.0436
     26 C          64.2028   83.2924   13.9916 C.2     1  UNL1        0.0288
     27 C          64.5033   82.0410   13.2212 C.2     1  UNL1        0.0896
     28 N          64.0892   81.9274   11.7840 N.am    1  UNL1       -0.1770
     29 C          63.3748   83.0654   11.1172 C.2     1  UNL1        0.2627
     30 O          62.9607   82.9519    9.6800 O.2     1  UNL1       -0.2719
     31 N          63.1880   85.6819   14.0953 N.pl3   1  UNL1       -0.3329
     32 H          62.2770   85.8472   14.4298 H       1  UNL1        0.1466
     33 C          64.2756   86.6814   14.3561 C.3     1  UNL1        0.1211
     34 C          63.9335   88.0382   14.8964 C.3     1  UNL1        0.1522
     35 O          63.3916   88.1764   16.2883 O.3     1  UNL1       -0.3783
     36 H          63.3250   87.2997   16.6979 H       1  UNL1        0.2109
     37 C          64.1331   89.2568   14.0449 C.ar    1  UNL1        0.0067
     38 C          65.0246   90.3657   14.5197 C.ar    1  UNL1       -0.0018
     39 C          65.2243   91.5843   13.6681 C.ar    1  UNL1        0.0006
     40 C          64.5325   91.6940   12.3417 C.ar    1  UNL1        0.0114
     41 C          63.6410   90.5850   11.8669 C.ar    1  UNL1        0.0574
     42 CL         62.9492   90.6946   10.5404 Cl      1  UNL1       -0.0823
     43 C          63.4414   89.3664   12.7184 C.ar    1  UNL1        0.0095
@<TRIPOS>BOND
     1     1     2    1
     2     2     3    2
     3     3     4    1
     4     4    11    1
     5    11    12    1
     6    12    13    1
     7    13    14    1
     8    14    15   am
     9    15    16    2
    10    15    19    1
    11    19    20    1
    12    20    21    1
    13    20    22    1
    14    20    23    1
    15    14    17    1
    16    17    18    1
    17     4     5    2
    18     5     6    1
    19     6     7    2
    20     7     8    1
    21     8    24    1
    22    24    25    1
    23    25    31    1
    24    31    33    1
    25    33    34    1
    26    34    35    1
    27    34    37    1
    28    37    38   ar
    29    38    39   ar
    30    39    40   ar
    31    40    41   ar
    32    41    42    1
    33    41    43   ar
    34    25    26    2
    35    26    27    1
    36    27    28    2
    37    28    29    1
    38    29    30    2
    39     8     9    2
    40     9    10    1
    41    10     2    1
    42    18    11    1
    43    10     6    1
    44    29    24    1
    45    43    37   ar
    46    31    32    1
    47    35    36    1
@<TRIPOS>MOLECULE
*****
 43 47 0 0 0
SMALL
GASTEIGER

@<TRIPOS>ATOM
      1 C          59.9201   96.8557    1.5319 C.3     1  UNL1        0.0312
      2 C          60.1781   95.3861    1.3783 C.2     1  UNL1        0.0136
      3 C          59.9540   94.4601    2.5370 C.2     1  UNL1        0.0107
      4 C          60.2120   92.9906    2.3834 C.2     1  UNL1        0.0510
      5 C          60.6941   92.4468    1.0711 C.2     1  UNL1        0.0613
      6 C          60.9181   93.3727   -0.0875 C.2     1  UNL1        0.2246
      7 N          61.3856   93.1283   -1.4917 N.2     1  UNL1       -0.0378
      8 C          61.4165   94.4470   -2.2059 C.2     1  UNL1        0.3605
      9 N          60.9681   95.5063   -1.2432 N.2     1  UNL1       -0.0547
     10 C          60.6601   94.8423    0.0661 C.3     1  UNL1        0.2976
     11 N          59.9879   92.0646    3.5421 N.pl3   1  UNL1       -0.3040
     12 C          61.1568   91.4052    4.2121 C.3     1  UNL1        0.1124
     13 C          60.9327   90.4793    5.3708 C.3     1  UNL1        0.1181
     14 N          59.5398   90.2128    5.8594 N.am    1  UNL1       -0.2425
     15 C          59.3157   89.2869    7.0180 C.2     1  UNL1        0.4047
     16 O          57.9228   89.0205    7.5067 O.2     1  UNL1       -0.2262
     17 C          58.3710   90.8723    5.1894 C.3     1  UNL1        0.1181
     18 C          58.5950   91.7982    4.0308 C.3     1  UNL1        0.1124
     19 O          60.4845   88.6274    7.6881 O.3     1  UNL1       -0.4418
     20 C          60.3686   88.1591    9.1084 C.3     1  UNL1        0.1378
     21 C          60.5755   89.5649    9.5888 C.3     1  UNL1        0.0437
     22 C          60.1618   86.7532    8.6278 C.3     1  UNL1        0.0437
     23 C          60.2528   87.6906   10.5286 C.3     1  UNL1        0.0437
     24 C          61.8242   94.6677   -3.6325 C.3     1  UNL1        0.2246
     25 C          61.1839   95.7613   -4.4349 C.2     1  UNL1        0.0436
     26 C          61.5916   95.9819   -5.8615 C.2     1  UNL1        0.0288
     27 C          62.6396   95.1089   -6.4857 C.2     1  UNL1        0.0896
     28 N          63.2799   94.0153   -5.6833 N.am    1  UNL1       -0.1770
     29 C          62.8722   93.7947   -4.2567 C.2     1  UNL1        0.2627
     30 O          63.5125   92.7010   -3.4542 O.2     1  UNL1       -0.2719
     31 N          60.1359   96.6343   -3.8109 N.pl3   1  UNL1       -0.3329
     32 H          60.3866   97.2825   -3.1136 H       1  UNL1        0.1466
     33 C          58.7060   96.5199   -4.2492 C.3     1  UNL1        0.1211
     34 C          58.1517   95.1878   -4.6595 C.3     1  UNL1        0.1522
     35 O          58.0911   94.8156   -6.1113 O.3     1  UNL1       -0.3783
     36 H          58.4470   95.5421   -6.6465 H       1  UNL1        0.2109
     37 C          57.6579   94.2280   -3.6179 C.ar    1  UNL1        0.0067
     38 C          57.7754   94.5740   -2.1631 C.ar    1  UNL1       -0.0018
     39 C          57.2817   93.6142   -1.1216 C.ar    1  UNL1        0.0006
     40 C          56.6703   92.3082   -1.5347 C.ar    1  UNL1        0.0114
     41 C          56.5528   91.9622   -2.9895 C.ar    1  UNL1        0.0574
     42 CL         55.9414   90.6562   -3.4027 Cl      1  UNL1       -0.0823
     43 C          57.0465   92.9220   -4.0311 C.ar    1  UNL1        0.0095
@<TRIPOS>BOND
     1     1     2    1
     2     2     3    2
     3     3     4    1
     4     4    11    1
     5    11    12    1
     6    12    13    1
     7    13    14    1
     8    14    15   am
     9    15    16    2
    10    15    19    1
    11    19    20    1
    12    20    21    1
    13    20    22    1
    14    20    23    1
    15    14    17    1
    16    17    18    1
    17     4     5    2
    18     5     6    1
    19     6     7    2
    20     7     8    1
    21     8    24    1
    22    24    25    1
    23    25    31    1
    24    31    33    1
    25    33    34    1
    26    34    35    1
    27    34    37    1
    28    37    38   ar
    29    38    39   ar
    30    39    40   ar
    31    40    41   ar
    32    41    42    1
    33    41    43   ar
    34    25    26    2
    35    26    27    1
    36    27    28    2
    37    28    29    1
    38    29    30    2
    39     8     9    2
    40     9    10    1
    41    10     2    1
    42    18    11    1
    43    10     6    1
    44    29    24    1
    45    43    37   ar
    46    31    32    1
    47    35    36    1
