@<TRIPOS>MOLECULE
*****
 32 36 0 0 0
SMALL
GASTEIGER

@<TRIPOS>ATOM
      1 C          43.7532   73.2286   17.1910 C.ar    1  UNL1        0.1028
      2 C          43.7472   72.6418   15.8106 C.ar    1  UNL1        0.0131
      3 C          43.7267   73.5437   14.6122 C.ar    1  UNL1       -0.0015
      4 C          43.7088   75.0743   14.4527 C.ar    1  UNL1        0.0035
      5 C          43.7266   74.6054   15.8774 C.ar    1  UNL1        0.0358
      6 C          43.7388   74.7174   17.3732 C.ar    1  UNL1        0.1545
      7 O          43.7435   75.3932   18.7122 O.3     1  UNL1       -0.4528
      8 C          43.7400   76.5301   19.6909 C.ar    1  UNL1        0.1451
      9 C          43.7520   76.6899   21.2214 C.ar    1  UNL1        0.0380
     10 C          43.7471   77.8882   22.1236 C.ar    1  UNL1        0.0096
     11 C          43.7270   79.2686   21.5369 C.ar    1  UNL1        0.0324
     12 BR         43.7222   80.4670   22.4390 Br      1  UNL1       -0.0493
     13 C          43.7117   79.4506   20.0481 C.ar    1  UNL1        0.0069
     14 C          43.7288   77.9548   20.1599 C.ar    1  UNL1        0.0354
     15 C          43.6913   80.7896   19.3723 C.3     1  UNL1        0.1207
     16 N          43.6706   81.7680   18.2355 N.am    1  UNL1       -0.2743
     17 C          43.6522   83.2402   17.9486 C.3     1  UNL1        0.0957
     18 C          43.6369   83.4222   16.4598 C.3     1  UNL1        0.0466
     19 C          43.6406   82.1249   15.3151 C.3     1  UNL1        0.1337
     20 N          43.6359   81.4491   13.9759 N.3     1  UNL1       -0.2863
     21 C          43.6394   80.3122   12.9974 C.3     1  UNL1        0.1151
     22 C          43.6506   78.8875   12.5283 C.ar    1  UNL1        0.0739
     23 C          43.6337   79.2432   11.0712 C.ar    1  UNL1        0.1147
     24 N          43.6404   77.9673   10.2825 N.ar    1  UNL1       -0.2226
     25 C          43.6614   76.8230   11.2522 C.ar    1  UNL1        0.1786
     26 N          43.6677   77.3918   12.6402 N.ar    1  UNL1       -0.3070
     27 C          43.6881   76.0527   13.3159 C.3     1  UNL1        0.1341
     28 C          43.6528   82.2370   16.8108 C.2     1  UNL1        0.2402
     29 O          43.6473   82.9813   17.0962 O.2     1  UNL1       -0.2734
     30 H          44.4604   81.9219   13.6057 H       1  UNL1        0.1240
     31 N          43.7940   71.4247   19.5877 N.1     1  UNL1       -0.1907
     32 C          43.7736   72.3266   18.3894 C.1     1  UNL1        0.1035
@<TRIPOS>BOND
     1    31    32    3
     2    32     1    1
     3     1     2   ar
     4     2     3   ar
     5     3     4   ar
     6     4     5   ar
     7     5     6   ar
     8     6     7    1
     9     7     8    1
    10     8     9   ar
    11     9    10   ar
    12    10    11   ar
    13    11    12    1
    14    11    13   ar
    15    13    14   ar
    16    13    15    1
    17    15    16    1
    18    16    17    1
    19    17    18    1
    20    18    19    1
    21    19    20    1
    22    20    21    1
    23    21    22    1
    24    22    23   ar
    25    23    24   ar
    26    24    25   ar
    27    25    26   ar
    28    26    27    1
    29    19    28    1
    30    28    29    2
    31     6     1   ar
    32    14     8   ar
    33    28    16   am
    34    27     4    1
    35    26    22   ar
    36    20    30    1
@<TRIPOS>MOLECULE
*****
 32 36 0 0 0
SMALL
GASTEIGER

@<TRIPOS>ATOM
      1 C          57.3059   96.5947   -4.2915 C.ar    1  UNL1        0.1028
      2 C          56.3227   96.6045   -3.1588 C.ar    1  UNL1        0.0131
      3 C          56.8117   96.6457   -1.7414 C.ar    1  UNL1       -0.0015
      4 C          58.2185   96.6839   -1.1188 C.ar    1  UNL1        0.0035
      5 C          58.2112   96.6489   -2.6183 C.ar    1  UNL1        0.0358
      6 C          58.7783   96.6262   -4.0068 C.ar    1  UNL1        0.1545
      7 O          59.8336   96.6192   -5.0727 O.3     1  UNL1       -0.4528
      8 C          61.2164   96.6290   -5.6540 C.ar    1  UNL1        0.1451
      9 C          61.8397   96.6068   -7.0609 C.ar    1  UNL1        0.0380
     10 C          63.2575   96.6193   -7.5504 C.ar    1  UNL1        0.0096
     11 C          64.3900   96.6613   -6.5677 C.ar    1  UNL1        0.0324
     12 BR         65.8078   96.6738   -7.0573 Br      1  UNL1       -0.0493
     13 C          64.1046   96.6907   -5.0954 C.ar    1  UNL1        0.0069
     14 C          62.7161   96.6541   -5.6619 C.ar    1  UNL1        0.0354
     15 C          65.1703   96.7332   -4.0407 C.3     1  UNL1        0.1207
     16 N          65.7511   96.7752   -2.6583 N.am    1  UNL1       -0.2743
     17 C          67.0632   96.8142   -1.9325 C.3     1  UNL1        0.0957
     18 C          66.7778   96.8437   -0.4602 C.3     1  UNL1        0.0466
     19 C          65.1913   96.8330    0.2298 C.3     1  UNL1        0.1337
     20 N          64.1360   96.8400    1.2958 N.3     1  UNL1       -0.2863
     21 C          62.7532   96.8301    1.8770 C.3     1  UNL1        0.1151
     22 C          61.2534   96.8050    1.8849 C.ar    1  UNL1        0.0739
     23 C          61.1431   96.8380    3.3805 C.ar    1  UNL1        0.1147
     24 N          59.6865   96.8217    3.7383 N.ar    1  UNL1       -0.2226
     25 C          58.8966   96.7787    2.4638 C.ar    1  UNL1        0.1786
     26 N          59.8650   96.7684    1.3184 N.ar    1  UNL1       -0.3070
     27 C          58.7993   96.7259    0.2636 C.3     1  UNL1        0.1341
     28 C          65.7584   96.8102   -1.1587 C.2     1  UNL1        0.2402
     29 O          66.5544   96.8227   -1.2012 O.2     1  UNL1       -0.2734
     30 H          64.4515   97.6893    1.7642 H       1  UNL1        0.1240
     31 N          56.3280   96.5123   -7.1264 N.1     1  UNL1       -0.1907
     32 C          56.8169   96.5535   -5.7090 C.1     1  UNL1        0.1035
@<TRIPOS>BOND
     1    31    32    3
     2    32     1    1
     3     1     2   ar
     4     2     3   ar
     5     3     4   ar
     6     4     5   ar
     7     5     6   ar
     8     6     7    1
     9     7     8    1
    10     8     9   ar
    11     9    10   ar
    12    10    11   ar
    13    11    12    1
    14    11    13   ar
    15    13    14   ar
    16    13    15    1
    17    15    16    1
    18    16    17    1
    19    17    18    1
    20    18    19    1
    21    19    20    1
    22    20    21    1
    23    21    22    1
    24    22    23   ar
    25    23    24   ar
    26    24    25   ar
    27    25    26   ar
    28    26    27    1
    29    19    28    1
    30    28    29    2
    31     6     1   ar
    32    14     8   ar
    33    28    16   am
    34    27     4    1
    35    26    22   ar
    36    20    30    1
