@<TRIPOS>MOLECULE
*****
 34 38 0 0 0
SMALL
GASTEIGER

@<TRIPOS>ATOM
      1 C          61.5019   88.6336   11.2894 C.3     1  UNL1        0.1096
      2 C          60.4900   89.3151   10.4165 C.3     1  UNL1        0.1622
      3 O          59.8084   88.5504    9.3208 O.3     1  UNL1       -0.3502
      4 C          60.1384   87.1042    9.0979 C.3     1  UNL1        0.1637
      5 C          61.1502   86.4227    9.9707 C.3     1  UNL1        0.1257
      6 N          61.8320   87.1874   11.0665 N.am    1  UNL1       -0.2723
      7 C          62.8437   86.5059   11.9393 C.2     1  UNL1        0.2506
      8 O          63.5254   87.2706   13.0350 O.2     1  UNL1       -0.2699
      9 C          63.1738   85.0598   11.7164 C.ar    1  UNL1        0.0729
     10 C          63.3282   84.5322   10.3208 C.ar    1  UNL1        0.0061
     11 C          63.6583   83.0860   10.0979 C.ar    1  UNL1        0.0002
     12 C          63.8340   82.1674   11.2707 C.ar    1  UNL1        0.0016
     13 C          63.6796   82.6950   12.6663 C.ar    1  UNL1        0.0211
     14 C          63.3495   84.1412   12.8891 C.ar    1  UNL1        0.1072
     15 N          63.1951   84.6688   14.2848 N.ar    1  UNL1       -0.1477
     16 N          64.2923   85.2237   15.1440 N.ar    1  UNL1       -0.1447
     17 C          63.6918   85.6319   16.4565 C.ar    1  UNL1        0.1446
     18 C          62.2234   85.3293   16.4085 C.ar    1  UNL1        0.1446
     19 N          61.9164   84.7341   15.0663 N.ar    1  UNL1       -0.1447
     20 C          62.1835   89.3982   12.3850 C.3     1  UNL1        0.0487
     21 C          65.3387   92.4443   11.3766 C.ar    1  UNL1        0.1401
     22 C          64.2872   92.0910   10.3668 C.ar    1  UNL1        0.0366
     23 C          63.2355   91.0757   10.7030 C.ar    1  UNL1       -0.0011
     24 C          63.2352   90.4136   12.0489 C.ar    1  UNL1       -0.0202
     25 C          64.2867   90.7668   13.0587 C.ar    1  UNL1        0.0004
     26 C          65.3384   91.7822   12.7225 C.ar    1  UNL1        0.0530
     27 C          66.3898   92.1354   13.7324 C.ar    1  UNL1        0.1058
     28 C          65.9933   92.4932   15.1341 C.ar    1  UNL1        0.0227
     29 C          67.0446   92.8464   16.1439 C.ar    1  UNL1        0.0241
     30 C          68.4926   92.8419   15.7521 C.ar    1  UNL1        0.1222
     31 N          68.8891   92.4840   14.3504 N.ar    1  UNL1       -0.1464
     32 N          67.8377   92.1308   13.3405 N.ar    1  UNL1       -0.1479
     33 C          66.1239   94.9183   11.2662 C.3     1  UNL1        0.2525
     34 O          66.3904   93.4596   11.0404 O.3     1  UNL1       -0.4714
@<TRIPOS>BOND
     1    33    34    1
     2    34    21    1
     3    21    22   ar
     4    22    23   ar
     5    23    24   ar
     6    24    20    1
     7     1    20    1
     8     1     2    1
     9     2     3    1
    10     3     4    1
    11     4     5    1
    12     5     6    1
    13     6     7   am
    14     7     8    2
    15     7     9    1
    16     9    10   ar
    17    10    11   ar
    18    11    12   ar
    19    12    13   ar
    20    13    14   ar
    21    14    15    1
    22    15    16   ar
    23    16    17   ar
    24    17    18   ar
    25    18    19   ar
    26    24    25   ar
    27    25    26   ar
    28    26    27    1
    29    27    28   ar
    30    28    29   ar
    31    29    30   ar
    32    30    31   ar
    33    31    32   ar
    34    26    21   ar
    35    32    27   ar
    36     6     1    1
    37    14     9   ar
    38    19    15   ar
@<TRIPOS>MOLECULE
*****
 34 38 0 0 0
SMALL
GASTEIGER

@<TRIPOS>ATOM
      1 C          62.1491   89.5509   11.8958 C.3     1  UNL1        0.1096
      2 C          61.4531   90.5956   11.0745 C.3     1  UNL1        0.1622
      3 O          60.8882   90.2401    9.7312 O.3     1  UNL1       -0.3502
      4 C          61.0192   88.8400    9.2091 C.3     1  UNL1        0.1637
      5 C          61.7152   87.7954   10.0303 C.3     1  UNL1        0.1257
      6 N          62.2802   88.1509   11.3736 N.am    1  UNL1       -0.2723
      7 C          62.9762   87.1062   12.1948 C.2     1  UNL1        0.2506
      8 O          63.5411   87.4617   13.5381 O.2     1  UNL1       -0.2699
      9 C          63.1072   85.7062   11.6727 C.ar    1  UNL1        0.0729
     10 C          63.1358   85.4568   10.1938 C.ar    1  UNL1        0.0061
     11 C          63.2668   84.0567    9.6717 C.ar    1  UNL1        0.0002
     12 C          63.3693   82.9060   10.6284 C.ar    1  UNL1        0.0016
     13 C          63.3408   83.1554   12.1072 C.ar    1  UNL1        0.0211
     14 C          63.2097   84.5555   12.6293 C.ar    1  UNL1        0.1072
     15 N          63.1812   84.8048   14.1083 N.ar    1  UNL1       -0.1477
     16 N          64.3666   85.1169   14.9728 N.ar    1  UNL1       -0.1447
     17 C          63.8804   85.2908   16.3811 C.ar    1  UNL1        0.1446
     18 C          62.3944   85.0862   16.3869 C.ar    1  UNL1        0.1446
     19 N          61.9623   84.7858   14.9822 N.ar    1  UNL1       -0.1447
     20 C          62.7141   89.9064   13.2390 C.3     1  UNL1        0.0487
     21 C          66.6644   92.0425   13.5249 C.ar    1  UNL1        0.1401
     22 C          66.1823   91.2009   14.6692 C.ar    1  UNL1        0.0366
     23 C          64.8655   90.4889   14.5739 C.ar    1  UNL1       -0.0011
     24 C          64.0309   90.6184   13.3343 C.ar    1  UNL1       -0.0202
     25 C          64.5130   91.4599   12.1901 C.ar    1  UNL1        0.0004
     26 C          65.8298   92.1720   12.2854 C.ar    1  UNL1        0.0530
     27 C          66.3119   93.0135   11.1410 C.ar    1  UNL1        0.1058
     28 C          67.3831   92.4950   10.2279 C.ar    1  UNL1        0.0227
     29 C          67.8652   93.3365    9.0837 C.ar    1  UNL1        0.0241
     30 C          67.2761   94.6966    8.8524 C.ar    1  UNL1        0.1222
     31 N          66.2049   95.2150    9.7655 N.ar    1  UNL1       -0.1464
     32 N          65.7228   94.3735   10.9099 N.ar    1  UNL1       -0.1479
     33 C          68.7286   92.7784   14.9205 C.3     1  UNL1        0.2525
     34 O          67.9812   92.7545   13.6202 O.3     1  UNL1       -0.4714
@<TRIPOS>BOND
     1    33    34    1
     2    34    21    1
     3    21    22   ar
     4    22    23   ar
     5    23    24   ar
     6    24    20    1
     7     1    20    1
     8     1     2    1
     9     2     3    1
    10     3     4    1
    11     4     5    1
    12     5     6    1
    13     6     7   am
    14     7     8    2
    15     7     9    1
    16     9    10   ar
    17    10    11   ar
    18    11    12   ar
    19    12    13   ar
    20    13    14   ar
    21    14    15    1
    22    15    16   ar
    23    16    17   ar
    24    17    18   ar
    25    18    19   ar
    26    24    25   ar
    27    25    26   ar
    28    26    27    1
    29    27    28   ar
    30    28    29   ar
    31    29    30   ar
    32    30    31   ar
    33    31    32   ar
    34    26    21   ar
    35    32    27   ar
    36     6     1    1
    37    14     9   ar
    38    19    15   ar
@<TRIPOS>MOLECULE
*****
 34 38 0 0 0
SMALL
GASTEIGER

@<TRIPOS>ATOM
      1 C          63.2870   88.7601   15.4143 C.3     1  UNL1        0.1096
      2 C          63.1409   89.0964   16.8689 C.3     1  UNL1        0.1622
      3 O          63.0868   87.9995   17.8905 O.3     1  UNL1       -0.3502
      4 C          63.1788   86.5662   17.4577 C.3     1  UNL1        0.1637
      5 C          63.3249   86.2299   16.0033 C.3     1  UNL1        0.1257
      6 N          63.3789   87.3268   14.9815 N.am    1  UNL1       -0.2723
      7 C          63.5250   86.9905   13.5271 C.2     1  UNL1        0.2506
      8 O          63.5791   88.0874   12.5054 O.2     1  UNL1       -0.2699
      9 C          63.6170   85.5572   13.0943 C.ar    1  UNL1        0.0729
     10 C          64.4495   84.5883   13.8804 C.ar    1  UNL1        0.0061
     11 C          64.5415   83.1551   13.4476 C.ar    1  UNL1        0.0002
     12 C          63.8009   82.6907   12.2286 C.ar    1  UNL1        0.0016
     13 C          62.9684   83.6596   11.4425 C.ar    1  UNL1        0.0211
     14 C          62.8764   85.0929   11.8753 C.ar    1  UNL1        0.1072
     15 N          62.0438   86.0618   11.0891 N.ar    1  UNL1       -0.1477
     16 N          60.8417   86.8035   11.5940 N.ar    1  UNL1       -0.1447
     17 C          60.3220   87.6592   10.4770 C.ar    1  UNL1        0.1446
     18 C          61.2030   87.4463    9.2817 C.ar    1  UNL1        0.1446
     19 N          62.2670   86.4591    9.6601 N.ar    1  UNL1       -0.1447
     20 C          63.3411   89.8570   14.3927 C.3     1  UNL1        0.0487
     21 C          66.6661   92.8866   14.5180 C.ar    1  UNL1        0.1401
     22 C          66.0379   92.4093   15.7937 C.ar    1  UNL1        0.0366
     23 C          64.9295   91.3994   15.7520 C.ar    1  UNL1       -0.0011
     24 C          64.4494   90.8669   14.4345 C.ar    1  UNL1       -0.0202
     25 C          65.0776   91.3442   13.1588 C.ar    1  UNL1        0.0004
     26 C          66.1859   92.3541   13.2005 C.ar    1  UNL1        0.0530
     27 C          66.8141   92.8314   11.9247 C.ar    1  UNL1        0.1058
     28 C          66.2022   93.9735   11.1689 C.ar    1  UNL1        0.0227
     29 C          66.8303   94.4508    9.8932 C.ar    1  UNL1        0.0241
     30 C          68.0705   93.7861    9.3732 C.ar    1  UNL1        0.1222
     31 N          68.6824   92.6440   10.1290 N.ar    1  UNL1       -0.1464
     32 N          68.0542   92.1667   11.4048 N.ar    1  UNL1       -0.1479
     33 C          68.7203   93.9242   15.7236 C.3     1  UNL1        0.2525
     34 O          67.7744   93.8965   14.5598 O.3     1  UNL1       -0.4714
@<TRIPOS>BOND
     1    33    34    1
     2    34    21    1
     3    21    22   ar
     4    22    23   ar
     5    23    24   ar
     6    24    20    1
     7     1    20    1
     8     1     2    1
     9     2     3    1
    10     3     4    1
    11     4     5    1
    12     5     6    1
    13     6     7   am
    14     7     8    2
    15     7     9    1
    16     9    10   ar
    17    10    11   ar
    18    11    12   ar
    19    12    13   ar
    20    13    14   ar
    21    14    15    1
    22    15    16   ar
    23    16    17   ar
    24    17    18   ar
    25    18    19   ar
    26    24    25   ar
    27    25    26   ar
    28    26    27    1
    29    27    28   ar
    30    28    29   ar
    31    29    30   ar
    32    30    31   ar
    33    31    32   ar
    34    26    21   ar
    35    32    27   ar
    36     6     1    1
    37    14     9   ar
    38    19    15   ar
@<TRIPOS>MOLECULE
*****
 34 38 0 0 0
SMALL
GASTEIGER

@<TRIPOS>ATOM
      1 C          63.8748   88.1861   13.8762 C.3     1  UNL1        0.1096
      2 C          64.5606   87.3913   14.9478 C.3     1  UNL1        0.1622
      3 O          64.6437   85.8978   14.8368 O.3     1  UNL1       -0.3502
      4 C          64.0410   85.1989   13.6543 C.3     1  UNL1        0.1637
      5 C          63.3552   85.9935   12.5828 C.3     1  UNL1        0.1257
      6 N          63.2721   87.4872   12.6937 N.am    1  UNL1       -0.2723
      7 C          62.5863   88.2818   11.6222 C.2     1  UNL1        0.2506
      8 O          62.5032   89.7753   11.7332 O.2     1  UNL1       -0.2699
      9 C          61.9836   87.5829   10.4397 C.ar    1  UNL1        0.0729
     10 C          62.7846   86.5669    9.6806 C.ar    1  UNL1        0.0061
     11 C          62.1819   85.8680    8.4981 C.ar    1  UNL1        0.0002
     12 C          60.7783   86.1851    8.0747 C.ar    1  UNL1        0.0016
     13 C          59.9774   87.2011    8.8337 C.ar    1  UNL1        0.0211
     14 C          60.5800   87.9000   10.0163 C.ar    1  UNL1        0.1072
     15 N          59.7790   88.9160   10.7753 N.ar    1  UNL1       -0.1477
     16 N          59.6130   90.3609   10.4084 N.ar    1  UNL1       -0.1447
     17 C          58.7348   91.0034   11.4409 C.ar    1  UNL1        0.1446
     18 C          58.3581   89.9555   12.4459 C.ar    1  UNL1        0.1446
     19 N          59.0034   88.6655   12.0346 N.ar    1  UNL1       -0.1447
     20 C          63.7916   89.6796   13.9872 C.3     1  UNL1        0.0487
     21 C          67.5573   92.1411   14.0921 C.ar    1  UNL1        0.1401
     22 C          67.1160   91.3929   15.3150 C.ar    1  UNL1        0.0366
     23 C          65.8608   90.5724   15.2800 C.ar    1  UNL1       -0.0011
     24 C          65.0468   90.5001   14.0222 C.ar    1  UNL1       -0.0202
     25 C          65.4881   91.2484   12.7993 C.ar    1  UNL1        0.0004
     26 C          66.7433   92.0689   12.8343 C.ar    1  UNL1        0.0530
     27 C          67.1845   92.8171   11.6114 C.ar    1  UNL1        0.1058
     28 C          67.9586   92.1105   10.5383 C.ar    1  UNL1        0.0227
     29 C          68.3998   92.8587    9.3155 C.ar    1  UNL1        0.0241
     30 C          68.0669   94.3136    9.1656 C.ar    1  UNL1        0.1222
     31 N          67.2928   95.0203   10.2386 N.ar    1  UNL1       -0.1464
     32 N          66.8516   94.2720   11.4615 N.ar    1  UNL1       -0.1479
     33 C          69.3235   93.4953   15.4325 C.3     1  UNL1        0.2525
     34 O          68.8125   92.9616   14.1271 O.3     1  UNL1       -0.4714
@<TRIPOS>BOND
     1    33    34    1
     2    34    21    1
     3    21    22   ar
     4    22    23   ar
     5    23    24   ar
     6    24    20    1
     7     1    20    1
     8     1     2    1
     9     2     3    1
    10     3     4    1
    11     4     5    1
    12     5     6    1
    13     6     7   am
    14     7     8    2
    15     7     9    1
    16     9    10   ar
    17    10    11   ar
    18    11    12   ar
    19    12    13   ar
    20    13    14   ar
    21    14    15    1
    22    15    16   ar
    23    16    17   ar
    24    17    18   ar
    25    18    19   ar
    26    24    25   ar
    27    25    26   ar
    28    26    27    1
    29    27    28   ar
    30    28    29   ar
    31    29    30   ar
    32    30    31   ar
    33    31    32   ar
    34    26    21   ar
    35    32    27   ar
    36     6     1    1
    37    14     9   ar
    38    19    15   ar
