@<TRIPOS>MOLECULE
*****
 29 31 0 0 0
SMALL
GASTEIGER

@<TRIPOS>ATOM
      1 C          63.2033   90.3901   11.8787 C.ar    1  UNL1        0.0531
      2 C          63.4250   91.3085   10.7136 C.ar    1  UNL1        0.0042
      3 C          64.5367   92.3148   10.7527 C.ar    1  UNL1       -0.0038
      4 C          65.4267   92.4027   11.9568 C.ar    1  UNL1       -0.0178
      5 C          65.2050   91.4844   13.1219 C.ar    1  UNL1       -0.0038
      6 C          64.0933   90.4781   13.0828 C.ar    1  UNL1        0.0040
      7 C          63.8717   89.5598   14.2480 C.ar    1  UNL1       -0.0002
      8 C          63.2584   90.0861   15.5117 C.ar    1  UNL1       -0.0000
      9 C          63.0368   89.1678   16.6769 C.ar    1  UNL1       -0.0003
     10 C          63.4284   87.7231   16.5784 C.ar    1  UNL1       -0.0043
     11 C          64.0417   87.1968   15.3147 C.ar    1  UNL1       -0.0218
     12 C          64.2633   88.1152   14.1495 C.ar    1  UNL1       -0.0043
     13 C          64.4333   85.7522   15.2161 C.3     1  UNL1        0.0322
     14 C          64.1306   84.9766   13.9685 C.3     1  UNL1        0.0464
     15 C          64.1455   83.4768   13.9955 C.2     1  UNL1        0.0507
     16 O          64.4537   82.7073   12.7454 O.co2   1  UNL1       -0.5492
     17 O          63.8523   82.7468   15.2725 O.co2   1  UNL1       -0.5492
     18 N          60.7502   89.7254   12.4173 N.am    1  UNL1       -0.3253
     19 C          62.0916   89.3839   11.8396 C.2     1  UNL1        0.2427
     20 O          62.3214   88.0360   11.2228 O.2     1  UNL1       -0.2704
     21 H          60.0206   89.0649   12.3916 H       1  UNL1        0.1453
     22 H          60.5994   90.6100   12.8221 H       1  UNL1        0.1453
     23 C          66.5384   93.4090   11.9959 C.3     1  UNL1        0.0526
     24 C          66.6658   94.4286   10.9032 C.ar    1  UNL1       -0.0178
     25 C          66.0989   95.8046   11.0914 C.ar    1  UNL1       -0.0039
     26 C          66.2264   96.8242    9.9987 C.ar    1  UNL1       -0.0003
     27 C          66.9207   96.4679    8.7177 C.ar    1  UNL1       -0.0000
     28 C          67.4876   95.0920    8.5294 C.ar    1  UNL1       -0.0003
     29 C          67.3602   94.0723    9.6222 C.ar    1  UNL1       -0.0039
@<TRIPOS>UNITY_ATOM_ATTR
16 1
charge -1
@<TRIPOS>BOND
     1    18    19   am
     2    19    20    2
     3    19     1    1
     4     1     2   ar
     5     2     3   ar
     6     3     4   ar
     7     4    23    1
     8    23    24    1
     9    24    25   ar
    10    25    26   ar
    11    26    27   ar
    12    27    28   ar
    13    28    29   ar
    14     4     5   ar
    15     5     6   ar
    16     6     7    1
    17     7     8   ar
    18     8     9   ar
    19     9    10   ar
    20    10    11   ar
    21    11    13    1
    22    13    14    1
    23    14    15    1
    24    15    16   ar
    25    15    17   ar
    26    11    12   ar
    27     6     1   ar
    28    12     7   ar
    29    29    24   ar
    30    18    21    1
    31    18    22    1
@<TRIPOS>MOLECULE
*****
 29 31 0 0 0
SMALL
GASTEIGER

@<TRIPOS>ATOM
      1 C          64.1305   90.2205   14.2733 C.ar    1  UNL1        0.0531
      2 C          65.1883   91.0715   14.9111 C.ar    1  UNL1        0.0042
      3 C          65.7743   92.2292   14.1585 C.ar    1  UNL1       -0.0038
      4 C          65.3024   92.5359   12.7682 C.ar    1  UNL1       -0.0178
      5 C          64.2446   91.6850   12.1304 C.ar    1  UNL1       -0.0038
      6 C          63.6587   90.5273   12.8830 C.ar    1  UNL1        0.0040
      7 C          62.6008   89.6763   12.2451 C.ar    1  UNL1       -0.0002
      8 C          61.1838   90.1642   12.1804 C.ar    1  UNL1       -0.0000
      9 C          60.1260   89.3133   11.5426 C.ar    1  UNL1       -0.0003
     10 C          60.4851   87.9744   10.9694 C.ar    1  UNL1       -0.0043
     11 C          61.9020   87.4865   11.0340 C.ar    1  UNL1       -0.0218
     12 C          62.9599   88.3375   11.6719 C.ar    1  UNL1       -0.0043
     13 C          62.2611   86.1477   10.4608 C.3     1  UNL1        0.0322
     14 C          62.1366   84.9132   11.3037 C.3     1  UNL1        0.0464
     15 C          63.1264   84.6503   12.3998 C.2     1  UNL1        0.0507
     16 O          64.2215   83.6457   12.1963 O.co2   1  UNL1       -0.5492
     17 O          63.0211   85.3921   13.6992 O.co2   1  UNL1       -0.5492
     18 N          64.1680   87.7031   14.9145 N.am    1  UNL1       -0.3253
     19 C          63.5446   89.0628   15.0259 C.2     1  UNL1        0.2427
     20 O          62.3352   89.2648   15.8899 O.2     1  UNL1       -0.2704
     21 H          63.7834   86.9433   15.4085 H       1  UNL1        0.1453
     22 H          64.9618   87.5705   14.3475 H       1  UNL1        0.1453
     23 C          65.8884   93.6936   12.0156 C.3     1  UNL1        0.0526
     24 C          66.7653   93.4469   10.8239 C.ar    1  UNL1       -0.0178
     25 C          66.8370   94.4624    9.7223 C.ar    1  UNL1       -0.0039
     26 C          67.7139   94.2157    8.5306 C.ar    1  UNL1       -0.0003
     27 C          68.5192   92.9534    8.4406 C.ar    1  UNL1       -0.0000
     28 C          68.4476   91.9379    9.5421 C.ar    1  UNL1       -0.0003
     29 C          67.5706   92.1846   10.7339 C.ar    1  UNL1       -0.0039
@<TRIPOS>UNITY_ATOM_ATTR
16 1
charge -1
@<TRIPOS>BOND
     1    18    19   am
     2    19    20    2
     3    19     1    1
     4     1     2   ar
     5     2     3   ar
     6     3     4   ar
     7     4    23    1
     8    23    24    1
     9    24    25   ar
    10    25    26   ar
    11    26    27   ar
    12    27    28   ar
    13    28    29   ar
    14     4     5   ar
    15     5     6   ar
    16     6     7    1
    17     7     8   ar
    18     8     9   ar
    19     9    10   ar
    20    10    11   ar
    21    11    13    1
    22    13    14    1
    23    14    15    1
    24    15    16   ar
    25    15    17   ar
    26    11    12   ar
    27     6     1   ar
    28    12     7   ar
    29    29    24   ar
    30    18    21    1
    31    18    22    1
@<TRIPOS>MOLECULE
*****
 29 31 0 0 0
SMALL
GASTEIGER

@<TRIPOS>ATOM
      1 C          64.2147   90.2401   14.0684 C.ar    1  UNL1        0.0531
      2 C          65.3479   90.9868   14.7073 C.ar    1  UNL1        0.0042
      3 C          65.9517   92.1714   14.0130 C.ar    1  UNL1       -0.0038
      4 C          65.4223   92.6093   12.6796 C.ar    1  UNL1       -0.0178
      5 C          64.2891   91.8627   12.0406 C.ar    1  UNL1       -0.0038
      6 C          63.6853   90.6781   12.7350 C.ar    1  UNL1        0.0040
      7 C          62.5521   89.9314   12.0959 C.ar    1  UNL1       -0.0002
      8 C          61.1359   90.2512   12.4731 C.ar    1  UNL1       -0.0000
      9 C          60.0027   89.5046   11.8341 C.ar    1  UNL1       -0.0003
     10 C          60.2856   88.4381   10.8179 C.ar    1  UNL1       -0.0043
     11 C          61.7018   88.1183   10.4407 C.ar    1  UNL1       -0.0218
     12 C          62.8350   88.8650   11.0798 C.ar    1  UNL1       -0.0043
     13 C          61.9847   87.0519    9.4245 C.3     1  UNL1        0.0322
     14 C          60.9431   86.0190    9.1115 C.3     1  UNL1        0.0464
     15 C          60.1257   86.1336    7.8589 C.2     1  UNL1        0.0507
     16 O          59.1916   87.2929    7.6764 O.co2   1  UNL1       -0.5492
     17 O          60.2426   85.0889    6.7889 O.co2   1  UNL1       -0.5492
     18 N          64.1097   87.6738   14.4594 N.am    1  UNL1       -0.3253
     19 C          63.6109   89.0555   14.7627 C.2     1  UNL1        0.2427
     20 O          62.5084   89.2526   15.7604 O.2     1  UNL1       -0.2704
     21 H          63.7135   86.8963   14.9151 H       1  UNL1        0.1453
     22 H          64.8334   87.5444   13.8045 H       1  UNL1        0.1453
     23 C          66.0260   93.7940   11.9853 C.3     1  UNL1        0.0526
     24 C          66.8422   93.5989   10.7420 C.ar    1  UNL1       -0.0178
     25 C          66.8460   94.6526    9.6743 C.ar    1  UNL1       -0.0039
     26 C          67.6621   94.4575    8.4310 C.ar    1  UNL1       -0.0003
     27 C          68.4744   93.2089    8.2553 C.ar    1  UNL1       -0.0000
     28 C          68.4707   92.1552    9.3228 C.ar    1  UNL1       -0.0003
     29 C          67.6545   92.3502   10.5662 C.ar    1  UNL1       -0.0039
@<TRIPOS>UNITY_ATOM_ATTR
16 1
charge -1
@<TRIPOS>BOND
     1    18    19   am
     2    19    20    2
     3    19     1    1
     4     1     2   ar
     5     2     3   ar
     6     3     4   ar
     7     4    23    1
     8    23    24    1
     9    24    25   ar
    10    25    26   ar
    11    26    27   ar
    12    27    28   ar
    13    28    29   ar
    14     4     5   ar
    15     5     6   ar
    16     6     7    1
    17     7     8   ar
    18     8     9   ar
    19     9    10   ar
    20    10    11   ar
    21    11    13    1
    22    13    14    1
    23    14    15    1
    24    15    16   ar
    25    15    17   ar
    26    11    12   ar
    27     6     1   ar
    28    12     7   ar
    29    29    24   ar
    30    18    21    1
    31    18    22    1
@<TRIPOS>MOLECULE
*****
 29 31 0 0 0
SMALL
GASTEIGER

@<TRIPOS>ATOM
      1 C          63.0380   88.2613   12.5999 C.ar    1  UNL1        0.0531
      2 C          62.6964   87.0037   11.8570 C.ar    1  UNL1        0.0042
      3 C          63.1582   85.6754   12.3789 C.ar    1  UNL1       -0.0038
      4 C          63.9616   85.6046   13.6436 C.ar    1  UNL1       -0.0178
      5 C          64.3032   86.8621   14.3864 C.ar    1  UNL1       -0.0038
      6 C          63.8415   88.1905   13.8646 C.ar    1  UNL1        0.0040
      7 C          64.1831   89.4480   14.6075 C.ar    1  UNL1       -0.0002
      8 C          63.4096   89.8274   15.8354 C.ar    1  UNL1       -0.0000
      9 C          63.7513   91.0849   16.5783 C.ar    1  UNL1       -0.0003
     10 C          64.8665   91.9631   16.0933 C.ar    1  UNL1       -0.0043
     11 C          65.6400   91.5838   14.8654 C.ar    1  UNL1       -0.0218
     12 C          65.2983   90.3262   14.1225 C.ar    1  UNL1       -0.0043
     13 C          66.7551   92.4619   14.3804 C.3     1  UNL1        0.0322
     14 C          66.4455   93.7056   13.6011 C.3     1  UNL1        0.0464
     15 C          66.4491   93.6715   12.1014 C.2     1  UNL1        0.0507
     16 O          66.8352   94.8950   11.3243 O.co2   1  UNL1       -0.5492
     17 O          66.0666   92.4138   11.3790 O.co2   1  UNL1       -0.5492
     18 N          61.2270   90.1191   12.4640 N.am    1  UNL1       -0.3253
     19 C          62.5763   89.5896   12.0780 C.2     1  UNL1        0.2427
     20 O          63.4638   90.3884   11.1702 O.2     1  UNL1       -0.2704
     21 H          60.9240   90.9910   12.1215 H       1  UNL1        0.1453
     22 H          60.6445   89.5949   13.0599 H       1  UNL1        0.1453
     23 C          64.4233   84.2763   14.1654 C.3     1  UNL1        0.0526
     24 C          63.6442   83.0342   13.8490 C.ar    1  UNL1       -0.0178
     25 C          64.0687   82.1516   12.7128 C.ar    1  UNL1       -0.0039
     26 C          63.2896   80.9095   12.3964 C.ar    1  UNL1       -0.0003
     27 C          62.0860   80.5500   13.2161 C.ar    1  UNL1       -0.0000
     28 C          61.6614   81.4325   14.3522 C.ar    1  UNL1       -0.0003
     29 C          62.4406   82.6747   14.6687 C.ar    1  UNL1       -0.0039
@<TRIPOS>UNITY_ATOM_ATTR
16 1
charge -1
@<TRIPOS>BOND
     1    18    19   am
     2    19    20    2
     3    19     1    1
     4     1     2   ar
     5     2     3   ar
     6     3     4   ar
     7     4    23    1
     8    23    24    1
     9    24    25   ar
    10    25    26   ar
    11    26    27   ar
    12    27    28   ar
    13    28    29   ar
    14     4     5   ar
    15     5     6   ar
    16     6     7    1
    17     7     8   ar
    18     8     9   ar
    19     9    10   ar
    20    10    11   ar
    21    11    13    1
    22    13    14    1
    23    14    15    1
    24    15    16   ar
    25    15    17   ar
    26    11    12   ar
    27     6     1   ar
    28    12     7   ar
    29    29    24   ar
    30    18    21    1
    31    18    22    1
@<TRIPOS>MOLECULE
*****
 29 31 0 0 0
SMALL
GASTEIGER

@<TRIPOS>ATOM
      1 C          63.7577   83.0371   12.3817 C.ar    1  UNL1        0.0531
      2 C          64.2517   82.5106   13.6964 C.ar    1  UNL1        0.0042
      3 C          64.2547   83.3976   14.9061 C.ar    1  UNL1       -0.0038
      4 C          63.7636   84.8110   14.8011 C.ar    1  UNL1       -0.0178
      5 C          63.2696   85.3375   13.4863 C.ar    1  UNL1       -0.0038
      6 C          63.2666   84.4506   12.2766 C.ar    1  UNL1        0.0040
      7 C          62.7725   84.9771   10.9618 C.ar    1  UNL1       -0.0002
      8 C          63.4423   84.5582    9.6867 C.ar    1  UNL1       -0.0000
      9 C          62.9483   85.0847    8.3719 C.ar    1  UNL1       -0.0003
     10 C          61.7845   86.0302    8.3322 C.ar    1  UNL1       -0.0043
     11 C          61.1147   86.4492    9.6073 C.ar    1  UNL1       -0.0218
     12 C          61.6088   85.9226   10.9221 C.ar    1  UNL1       -0.0043
     13 C          59.9509   87.3947    9.5676 C.3     1  UNL1        0.0322
     14 C          60.1876   88.8759    9.5695 C.3     1  UNL1        0.0464
     15 C          60.2055   89.6309   10.8655 C.2     1  UNL1        0.0507
     16 O          59.3455   90.8479   11.0364 O.co2   1  UNL1       -0.5492
     17 O          61.0834   89.1689   11.9906 O.co2   1  UNL1       -0.5492
     18 N          62.6919   81.1040   11.0116 N.am    1  UNL1       -0.3253
     19 C          63.7547   82.1502   11.1720 C.2     1  UNL1        0.2427
     20 O          64.8146   82.3095   10.1226 O.2     1  UNL1       -0.2704
     21 H          62.6899   80.5219   10.2177 H       1  UNL1        0.1453
     22 H          61.9962   80.9994   11.7004 H       1  UNL1        0.1453
     23 C          63.7666   85.6979   16.0108 C.3     1  UNL1        0.0526
     24 C          63.7616   87.1889   15.8476 C.ar    1  UNL1       -0.0178
     25 C          63.0898   88.0534   16.8730 C.ar    1  UNL1       -0.0039
     26 C          63.0848   89.5445   16.7098 C.ar    1  UNL1       -0.0003
     27 C          63.7515   90.1711   15.5212 C.ar    1  UNL1       -0.0000
     28 C          64.4233   89.3067   14.4958 C.ar    1  UNL1       -0.0003
     29 C          64.4283   87.8156   14.6590 C.ar    1  UNL1       -0.0039
@<TRIPOS>UNITY_ATOM_ATTR
16 1
charge -1
@<TRIPOS>BOND
     1    18    19   am
     2    19    20    2
     3    19     1    1
     4     1     2   ar
     5     2     3   ar
     6     3     4   ar
     7     4    23    1
     8    23    24    1
     9    24    25   ar
    10    25    26   ar
    11    26    27   ar
    12    27    28   ar
    13    28    29   ar
    14     4     5   ar
    15     5     6   ar
    16     6     7    1
    17     7     8   ar
    18     8     9   ar
    19     9    10   ar
    20    10    11   ar
    21    11    13    1
    22    13    14    1
    23    14    15    1
    24    15    16   ar
    25    15    17   ar
    26    11    12   ar
    27     6     1   ar
    28    12     7   ar
    29    29    24   ar
    30    18    21    1
    31    18    22    1
@<TRIPOS>MOLECULE
*****
 29 31 0 0 0
SMALL
GASTEIGER

@<TRIPOS>ATOM
      1 C          63.1240   87.9482   16.4669 C.ar    1  UNL1        0.0531
      2 C          63.0568   89.3553   16.9822 C.ar    1  UNL1        0.0042
      3 C          63.6765   90.4723   16.1959 C.ar    1  UNL1       -0.0038
      4 C          64.3633   90.1822   14.8944 C.ar    1  UNL1       -0.0178
      5 C          64.4305   88.7752   14.3791 C.ar    1  UNL1       -0.0038
      6 C          63.8108   87.6581   15.1654 C.ar    1  UNL1        0.0040
      7 C          63.8780   86.2510   14.6500 C.ar    1  UNL1       -0.0002
      8 C          64.5751   85.1915   15.4510 C.ar    1  UNL1       -0.0000
      9 C          64.6423   83.7844   14.9357 C.ar    1  UNL1       -0.0003
     10 C          64.0124   83.4367   13.6194 C.ar    1  UNL1       -0.0043
     11 C          63.3153   84.4963   12.8185 C.ar    1  UNL1       -0.0218
     12 C          63.2481   85.9034   13.3339 C.ar    1  UNL1       -0.0043
     13 C          62.6854   84.1487   11.5023 C.3     1  UNL1        0.0322
     14 C          62.6023   85.1790   10.4153 C.3     1  UNL1        0.0464
     15 C          61.3605   86.0058   10.2589 C.2     1  UNL1        0.0507
     16 O          60.6283   86.0189    8.9498 O.co2   1  UNL1       -0.5492
     17 O          60.8511   86.8194   11.4114 O.co2   1  UNL1       -0.5492
     18 N          63.0916   86.4272   18.5730 N.am    1  UNL1       -0.3253
     19 C          62.5043   86.8312   17.2532 C.2     1  UNL1        0.2427
     20 O          61.2973   86.1181   16.7197 O.2     1  UNL1       -0.2704
     21 H          62.6848   85.6940   19.0890 H       1  UNL1        0.1453
     22 H          63.8838   86.8952   18.9231 H       1  UNL1        0.1453
     23 C          64.9830   91.2993   14.1081 C.3     1  UNL1        0.0526
     24 C          66.3060   91.8679   14.5278 C.ar    1  UNL1       -0.0178
     25 C          67.5139   91.6776   13.6589 C.ar    1  UNL1       -0.0039
     26 C          68.8369   92.2462   14.0786 C.ar    1  UNL1       -0.0003
     27 C          68.9522   93.0052   15.3673 C.ar    1  UNL1       -0.0000
     28 C          67.7444   93.1955   16.2362 C.ar    1  UNL1       -0.0003
     29 C          66.4213   92.6269   15.8165 C.ar    1  UNL1       -0.0039
@<TRIPOS>UNITY_ATOM_ATTR
16 1
charge -1
@<TRIPOS>BOND
     1    18    19   am
     2    19    20    2
     3    19     1    1
     4     1     2   ar
     5     2     3   ar
     6     3     4   ar
     7     4    23    1
     8    23    24    1
     9    24    25   ar
    10    25    26   ar
    11    26    27   ar
    12    27    28   ar
    13    28    29   ar
    14     4     5   ar
    15     5     6   ar
    16     6     7    1
    17     7     8   ar
    18     8     9   ar
    19     9    10   ar
    20    10    11   ar
    21    11    13    1
    22    13    14    1
    23    14    15    1
    24    15    16   ar
    25    15    17   ar
    26    11    12   ar
    27     6     1   ar
    28    12     7   ar
    29    29    24   ar
    30    18    21    1
    31    18    22    1
@<TRIPOS>MOLECULE
*****
 29 31 0 0 0
SMALL
GASTEIGER

@<TRIPOS>ATOM
      1 C          63.2514   88.0917   15.9423 C.ar    1  UNL1        0.0531
      2 C          63.1272   86.8582   16.7866 C.ar    1  UNL1        0.0042
      3 C          63.7390   85.5687   16.3252 C.ar    1  UNL1       -0.0038
      4 C          64.4750   85.5128   15.0194 C.ar    1  UNL1       -0.0178
      5 C          64.5992   86.7463   14.1751 C.ar    1  UNL1       -0.0038
      6 C          63.9874   88.0358   14.6365 C.ar    1  UNL1        0.0040
      7 C          64.1117   89.2693   13.7921 C.ar    1  UNL1       -0.0002
      8 C          63.1188   89.5331   12.6991 C.ar    1  UNL1       -0.0000
      9 C          63.2430   90.7666   11.8548 C.ar    1  UNL1       -0.0003
     10 C          64.3601   91.7364   12.1034 C.ar    1  UNL1       -0.0043
     11 C          65.3529   91.4726   13.1964 C.ar    1  UNL1       -0.0218
     12 C          65.2287   90.2390   14.0408 C.ar    1  UNL1       -0.0043
     13 C          66.4700   92.4423   13.4450 C.3     1  UNL1        0.0322
     14 C          66.4401   93.3261   14.6565 C.3     1  UNL1        0.0464
     15 C          66.6811   92.7422   16.0171 C.2     1  UNL1        0.0507
     16 O          65.5451   92.6077   16.9874 O.co2   1  UNL1       -0.5492
     17 O          68.0579   92.2928   16.4072 O.co2   1  UNL1       -0.5492
     18 N          63.4989   90.4343   17.0382 N.am    1  UNL1       -0.3253
     19 C          62.6396   89.3812   16.4038 C.2     1  UNL1        0.2427
     20 O          61.1685   89.6176   16.2308 O.2     1  UNL1       -0.2704
     21 H          63.0973   91.2806   17.3411 H       1  UNL1        0.1453
     22 H          64.4644   90.2792   17.1518 H       1  UNL1        0.1453
     23 C          65.0868   84.2233   14.5580 C.3     1  UNL1        0.0526
     24 C          64.3354   83.3322   13.6139 C.ar    1  UNL1       -0.0178
     25 C          63.2835   82.4005   14.1389 C.ar    1  UNL1       -0.0039
     26 C          62.5321   81.5094   13.1949 C.ar    1  UNL1       -0.0003
     27 C          62.8326   81.5498   11.7259 C.ar    1  UNL1       -0.0000
     28 C          63.8844   82.4814   11.2008 C.ar    1  UNL1       -0.0003
     29 C          64.6359   83.3726   12.1449 C.ar    1  UNL1       -0.0039
@<TRIPOS>UNITY_ATOM_ATTR
16 1
charge -1
@<TRIPOS>BOND
     1    18    19   am
     2    19    20    2
     3    19     1    1
     4     1     2   ar
     5     2     3   ar
     6     3     4   ar
     7     4    23    1
     8    23    24    1
     9    24    25   ar
    10    25    26   ar
    11    26    27   ar
    12    27    28   ar
    13    28    29   ar
    14     4     5   ar
    15     5     6   ar
    16     6     7    1
    17     7     8   ar
    18     8     9   ar
    19     9    10   ar
    20    10    11   ar
    21    11    13    1
    22    13    14    1
    23    14    15    1
    24    15    16   ar
    25    15    17   ar
    26    11    12   ar
    27     6     1   ar
    28    12     7   ar
    29    29    24   ar
    30    18    21    1
    31    18    22    1
@<TRIPOS>MOLECULE
*****
 29 31 0 0 0
SMALL
GASTEIGER

@<TRIPOS>ATOM
      1 C          60.9965   86.6255    8.3184 C.ar    1  UNL1        0.0531
      2 C          61.3369   85.4799    7.4121 C.ar    1  UNL1        0.0042
      3 C          62.3505   84.4604    7.8402 C.ar    1  UNL1       -0.0038
      4 C          63.0236   84.5865    9.1746 C.ar    1  UNL1       -0.0178
      5 C          62.6833   85.7322   10.0810 C.ar    1  UNL1       -0.0038
      6 C          61.6697   86.7517    9.6529 C.ar    1  UNL1        0.0040
      7 C          61.3293   87.8974   10.5593 C.ar    1  UNL1       -0.0002
      8 C          59.9196   88.0822   11.0376 C.ar    1  UNL1       -0.0000
      9 C          59.5793   89.2278   11.9440 C.ar    1  UNL1       -0.0003
     10 C          60.6485   90.1888   12.3722 C.ar    1  UNL1       -0.0043
     11 C          62.0582   90.0040   11.8939 C.ar    1  UNL1       -0.0218
     12 C          62.3986   88.8583   10.9875 C.ar    1  UNL1       -0.0043
     13 C          63.1275   90.9649   12.3221 C.3     1  UNL1        0.0322
     14 C          64.1282   90.5582   13.3628 C.3     1  UNL1        0.0464
     15 C          63.6885   90.3353   14.7795 C.2     1  UNL1        0.0507
     16 O          63.3887   88.9471   15.2621 O.co2   1  UNL1       -0.5492
     17 O          63.5487   91.5006   15.7136 O.co2   1  UNL1       -0.5492
     18 N          58.6057   87.2095    7.4861 N.am    1  UNL1       -0.3253
     19 C          59.9829   87.6450    7.8903 C.2     1  UNL1        0.2427
     20 O          60.3466   89.1001    7.8664 O.2     1  UNL1       -0.2704
     21 H          57.9404   87.8787    7.2051 H       1  UNL1        0.1453
     22 H          58.3669   86.2545    7.5018 H       1  UNL1        0.1453
     23 C          64.0372   83.5670    9.6027 C.3     1  UNL1        0.0526
     24 C          63.8439   82.8087   10.8824 C.ar    1  UNL1       -0.0178
     25 C          63.1112   81.4998   10.8752 C.ar    1  UNL1       -0.0039
     26 C          62.9178   80.7415   12.1548 C.ar    1  UNL1       -0.0003
     27 C          63.4572   81.2920   13.4417 C.ar    1  UNL1       -0.0000
     28 C          64.1900   82.6008   13.4489 C.ar    1  UNL1       -0.0003
     29 C          64.3833   83.3592   12.1692 C.ar    1  UNL1       -0.0039
@<TRIPOS>UNITY_ATOM_ATTR
16 1
charge -1
@<TRIPOS>BOND
     1    18    19   am
     2    19    20    2
     3    19     1    1
     4     1     2   ar
     5     2     3   ar
     6     3     4   ar
     7     4    23    1
     8    23    24    1
     9    24    25   ar
    10    25    26   ar
    11    26    27   ar
    12    27    28   ar
    13    28    29   ar
    14     4     5   ar
    15     5     6   ar
    16     6     7    1
    17     7     8   ar
    18     8     9   ar
    19     9    10   ar
    20    10    11   ar
    21    11    13    1
    22    13    14    1
    23    14    15    1
    24    15    16   ar
    25    15    17   ar
    26    11    12   ar
    27     6     1   ar
    28    12     7   ar
    29    29    24   ar
    30    18    21    1
    31    18    22    1
@<TRIPOS>MOLECULE
*****
 29 31 0 0 0
SMALL
GASTEIGER

@<TRIPOS>ATOM
      1 C          60.7145   88.6056    9.8006 C.ar    1  UNL1        0.0531
      2 C          60.2841   89.9943   10.1697 C.ar    1  UNL1        0.0042
      3 C          61.0496   90.7671   11.2026 C.ar    1  UNL1       -0.0038
      4 C          62.2454   90.1512   11.8664 C.ar    1  UNL1       -0.0178
      5 C          62.6757   88.7625   11.4973 C.ar    1  UNL1       -0.0038
      6 C          61.9103   87.9897   10.4644 C.ar    1  UNL1        0.0040
      7 C          62.3407   86.6009   10.0953 C.ar    1  UNL1       -0.0002
      8 C          62.7572   86.2942    8.6873 C.ar    1  UNL1       -0.0000
      9 C          63.1876   84.9055    8.3182 C.ar    1  UNL1       -0.0003
     10 C          63.2015   83.8235    9.3570 C.ar    1  UNL1       -0.0043
     11 C          62.7849   84.1303   10.7650 C.ar    1  UNL1       -0.0218
     12 C          62.3545   85.5190   11.1341 C.ar    1  UNL1       -0.0043
     13 C          62.7987   83.0483   11.8038 C.3     1  UNL1        0.0322
     14 C          62.7866   83.4069   13.2602 C.3     1  UNL1        0.0464
     15 C          63.4230   82.4911   14.2634 C.2     1  UNL1        0.0507
     16 O          63.2773   81.0050   14.1207 O.co2   1  UNL1       -0.5492
     17 O          64.2051   83.0613   15.4093 O.co2   1  UNL1       -0.5492
     18 N          59.6439   88.4565    7.4381 N.am    1  UNL1       -0.3253
     19 C          59.9490   87.8329    8.7677 C.2     1  UNL1        0.2427
     20 O          59.4887   86.4365    9.0644 O.2     1  UNL1       -0.2704
     21 H          59.1415   87.9493    6.7602 H       1  UNL1        0.1453
     22 H          59.9460   89.3730    7.2433 H       1  UNL1        0.1453
     23 C          63.0108   90.9239   12.8993 C.3     1  UNL1        0.0526
     24 C          64.3533   91.5015   12.5615 C.ar    1  UNL1       -0.0178
     25 C          65.4136   91.6028   13.6178 C.ar    1  UNL1       -0.0039
     26 C          66.7560   92.1804   13.2799 C.ar    1  UNL1       -0.0003
     27 C          67.0383   92.6568   11.8859 C.ar    1  UNL1       -0.0000
     28 C          65.9781   92.5556   10.8297 C.ar    1  UNL1       -0.0003
     29 C          64.6355   91.9779   11.1675 C.ar    1  UNL1       -0.0039
@<TRIPOS>UNITY_ATOM_ATTR
16 1
charge -1
@<TRIPOS>BOND
     1    18    19   am
     2    19    20    2
     3    19     1    1
     4     1     2   ar
     5     2     3   ar
     6     3     4   ar
     7     4    23    1
     8    23    24    1
     9    24    25   ar
    10    25    26   ar
    11    26    27   ar
    12    27    28   ar
    13    28    29   ar
    14     4     5   ar
    15     5     6   ar
    16     6     7    1
    17     7     8   ar
    18     8     9   ar
    19     9    10   ar
    20    10    11   ar
    21    11    13    1
    22    13    14    1
    23    14    15    1
    24    15    16   ar
    25    15    17   ar
    26    11    12   ar
    27     6     1   ar
    28    12     7   ar
    29    29    24   ar
    30    18    21    1
    31    18    22    1
