@<TRIPOS>MOLECULE
*****
 36 40 0 0 0
SMALL
GASTEIGER

@<TRIPOS>ATOM
      1 C          59.4106   89.5063    6.9740 C.ar    1  UNL1        0.0516
      2 C          59.0864   88.0420    7.0020 C.ar    1  UNL1        0.0147
      3 C          59.6663   87.1657    8.0725 C.ar    1  UNL1        0.0013
      4 C          60.5703   87.7537    9.1150 C.ar    1  UNL1        0.0007
      5 C          60.8945   89.2180    9.0871 C.ar    1  UNL1        0.0013
      6 C          60.3147   90.0943    8.0166 C.ar    1  UNL1        0.0147
      7 C          61.1502   86.8775   10.1855 C.ar    1  UNL1        0.0096
      8 C          60.9097   87.0105   11.6601 C.ar    1  UNL1        0.0355
      9 S          61.6832   85.9296   12.3553 S.2     1  UNL1       -0.0863
     10 C          62.4019   85.1285   11.3103 C.ar    1  UNL1        0.0334
     11 C          63.3136   83.9414   11.4066 C.ar    1  UNL1        0.0248
     12 C          63.8960   83.3400   10.1619 C.ar    1  UNL1        0.1005
     13 N          63.5665   83.9258    8.8209 N.ar    1  UNL1       -0.2296
     14 C          62.6547   85.1130    8.7246 C.ar    1  UNL1        0.1258
     15 N          62.3253   85.6989    7.3836 N.pl3   1  UNL1       -0.3426
     16 C          62.0724   85.7144    9.9693 C.ar    1  UNL1        0.0377
     17 H          62.7075   85.3042    6.5667 H       1  UNL1        0.1437
     18 H          61.7269   86.4781    7.3204 H       1  UNL1        0.1437
     19 C          63.6430   83.3556   12.7476 C.2     1  UNL1        0.0268
     20 C          63.2460   81.9943   13.2367 C.2     1  UNL1        0.1195
     21 N          63.7849   81.8255   14.6264 N.2     1  UNL1       -0.1510
     22 N          64.5151   83.0826   14.9961 N.2     1  UNL1       -0.1695
     23 C          64.4274   84.0282   13.8350 C.3     1  UNL1        0.1772
     24 N          59.1534   91.9162    3.8315 N.am    1  UNL1       -0.2681
     25 C          59.7333   91.0400    4.9020 C.2     1  UNL1        0.3082
     26 O          61.2157   90.8213    4.9709 O.2     1  UNL1       -0.2522
     27 N          58.8308   90.3825    5.9035 N.am    1  UNL1       -0.2681
     28 H          58.1805   92.0598    3.7863 H       1  UNL1        0.1564
     29 H          57.8578   90.5261    5.8583 H       1  UNL1        0.1564
     30 C          63.9293   92.8582    2.0140 C.3     1  UNL1        0.0311
     31 C          62.4439   93.0448    1.9212 C.ar    1  UNL1       -0.0206
     32 C          61.8609   93.8888    0.8267 C.ar    1  UNL1       -0.0042
     33 C          60.3755   94.0753    0.7339 C.ar    1  UNL1        0.0010
     34 C          59.4730   93.4178    1.7355 C.ar    1  UNL1        0.0147
     35 C          60.0560   92.5738    2.8299 C.ar    1  UNL1        0.0513
     36 C          61.5415   92.3872    2.9227 C.ar    1  UNL1        0.0105
@<TRIPOS>BOND
     1    30    31    1
     2    31    32   ar
     3    32    33   ar
     4    33    34   ar
     5    34    35   ar
     6    35    24    1
     7    24    25   am
     8    25    26    2
     9    25    27   am
    10    27     1    1
    11     1     2   ar
    12     2     3   ar
    13     3     4   ar
    14     4     7    1
    15     7     8   ar
    16     8     9   ar
    17     9    10   ar
    18    10    11   ar
    19    11    19    1
    20    19    20    2
    21    20    21    1
    22    21    22    2
    23    22    23    1
    24    11    12   ar
    25    12    13   ar
    26    13    14   ar
    27    14    15    1
    28    14    16   ar
    29     4     5   ar
    30     5     6   ar
    31    35    36   ar
    32    36    31   ar
    33     6     1   ar
    34    16     7   ar
    35    16    10   ar
    36    23    19    1
    37    24    28    1
    38    27    29    1
    39    15    17    1
    40    15    18    1
@<TRIPOS>MOLECULE
*****
 36 40 0 0 0
SMALL
GASTEIGER

@<TRIPOS>ATOM
      1 C          60.1051   92.3981    3.5295 C.ar    1  UNL1        0.0516
      2 C          61.5728   92.1635    3.3272 C.ar    1  UNL1        0.0147
      3 C          62.2181   92.5288    2.0233 C.ar    1  UNL1        0.0013
      4 C          61.3956   93.1286    0.9216 C.ar    1  UNL1        0.0007
      5 C          59.9279   93.3631    1.1238 C.ar    1  UNL1        0.0013
      6 C          59.2827   92.9979    2.4278 C.ar    1  UNL1        0.0147
      7 C          62.0408   93.4938   -0.3824 C.ar    1  UNL1        0.0096
      8 C          61.6792   92.9429   -1.7299 C.ar    1  UNL1        0.0355
      9 S          62.5758   93.5827   -2.7480 S.2     1  UNL1       -0.0863
     10 C          63.4916   94.5291   -2.0298 C.ar    1  UNL1        0.0334
     11 C          64.5838   95.4337   -2.5183 C.ar    1  UNL1        0.0248
     12 C          65.3454   96.2835   -1.5446 C.ar    1  UNL1        0.1005
     13 N          65.0147   96.2286   -0.0826 N.ar    1  UNL1       -0.2296
     14 C          63.9224   95.3239    0.4059 C.ar    1  UNL1        0.1258
     15 N          63.5918   95.2689    1.8679 N.pl3   1  UNL1       -0.3426
     16 C          63.1609   94.4741   -0.5678 C.ar    1  UNL1        0.0377
     17 H          64.0916   95.8266    2.5069 H       1  UNL1        0.1437
     18 H          62.8749   94.6751    2.1885 H       1  UNL1        0.1437
     19 C          64.9144   95.4887   -3.9804 C.2     1  UNL1        0.0268
     20 C          65.1523   96.7324   -4.7844 C.2     1  UNL1        0.1195
     21 N          65.4502   96.3220   -6.1961 N.2     1  UNL1       -0.1510
     22 N          65.3963   94.8245   -6.2645 N.2     1  UNL1       -0.1695
     23 C          65.0652   94.3094   -4.8951 C.3     1  UNL1        0.1772
     24 N          59.2085   90.4025    6.8405 N.am    1  UNL1       -0.2681
     25 C          59.8537   90.7677    5.5366 C.2     1  UNL1        0.3082
     26 O          60.8925   89.8679    4.9358 O.2     1  UNL1       -0.2522
     27 N          59.4599   92.0329    4.8335 N.am    1  UNL1       -0.2681
     28 H          58.5266   90.9931    7.2349 H       1  UNL1        0.1564
     29 H          58.7781   92.6235    5.2278 H       1  UNL1        0.1564
     30 C          61.9638   87.9636   10.5093 C.3     1  UNL1        0.0311
     31 C          60.9798   87.9179    9.3781 C.ar    1  UNL1       -0.0206
     32 C          60.3895   86.6071    8.9501 C.ar    1  UNL1       -0.0042
     33 C          59.4055   86.5613    7.8188 C.ar    1  UNL1        0.0010
     34 C          59.0119   87.8265    7.1157 C.ar    1  UNL1        0.0147
     35 C          59.6022   89.1373    7.5438 C.ar    1  UNL1        0.0513
     36 C          60.5862   89.1830    8.6750 C.ar    1  UNL1        0.0105
@<TRIPOS>BOND
     1    30    31    1
     2    31    32   ar
     3    32    33   ar
     4    33    34   ar
     5    34    35   ar
     6    35    24    1
     7    24    25   am
     8    25    26    2
     9    25    27   am
    10    27     1    1
    11     1     2   ar
    12     2     3   ar
    13     3     4   ar
    14     4     7    1
    15     7     8   ar
    16     8     9   ar
    17     9    10   ar
    18    10    11   ar
    19    11    19    1
    20    19    20    2
    21    20    21    1
    22    21    22    2
    23    22    23    1
    24    11    12   ar
    25    12    13   ar
    26    13    14   ar
    27    14    15    1
    28    14    16   ar
    29     4     5   ar
    30     5     6   ar
    31    35    36   ar
    32    36    31   ar
    33     6     1   ar
    34    16     7   ar
    35    16    10   ar
    36    23    19    1
    37    24    28    1
    38    27    29    1
    39    15    17    1
    40    15    18    1
@<TRIPOS>MOLECULE
*****
 36 40 0 0 0
SMALL
GASTEIGER

@<TRIPOS>ATOM
      1 C          60.2499   92.4826    3.6062 C.ar    1  UNL1        0.0516
      2 C          59.7667   93.6441    2.7893 C.ar    1  UNL1        0.0147
      3 C          60.5975   94.1578    1.6510 C.ar    1  UNL1        0.0013
      4 C          61.9116   93.5100    1.3295 C.ar    1  UNL1        0.0007
      5 C          62.3949   92.3484    2.1464 C.ar    1  UNL1        0.0013
      6 C          61.5640   91.8347    3.2848 C.ar    1  UNL1        0.0147
      7 C          62.7425   94.0236    0.1912 C.ar    1  UNL1        0.0096
      8 C          64.1088   94.6327    0.3015 C.ar    1  UNL1        0.0355
      9 S          64.5636   95.0039   -1.0789 S.2     1  UNL1       -0.0863
     10 C          63.4784   94.6242   -2.0423 C.ar    1  UNL1        0.0334
     11 C          63.3697   94.7518   -3.5329 C.ar    1  UNL1        0.0248
     12 C          62.1354   94.2737   -4.2386 C.ar    1  UNL1        0.1005
     13 N          61.0099   93.6678   -3.4536 N.ar    1  UNL1       -0.2296
     14 C          61.1186   93.5402   -1.9630 C.ar    1  UNL1        0.1258
     15 N          59.9931   92.9343   -1.1780 N.pl3   1  UNL1       -0.3426
     16 C          62.3529   94.0184   -1.2573 C.ar    1  UNL1        0.0377
     17 H          59.1830   92.6205   -1.6412 H       1  UNL1        0.1437
     18 H          60.0644   92.8506   -0.1997 H       1  UNL1        0.1437
     19 C          64.4952   95.3577   -4.3178 C.2     1  UNL1        0.0268
     20 C          65.2212   96.6267   -3.9823 C.2     1  UNL1        0.1195
     21 N          66.2671   96.8542   -5.0332 N.2     1  UNL1       -0.1510
     22 N          66.1875   95.7258   -6.0182 N.2     1  UNL1       -0.1695
     23 C          65.0924   94.8008   -5.5762 C.3     1  UNL1        0.1772
     24 N          59.0555   90.2728    6.6786 N.am    1  UNL1       -0.2681
     25 C          59.8864   90.7864    5.5403 C.2     1  UNL1        0.3082
     26 O          61.1846   90.1175    5.1977 O.2     1  UNL1       -0.2522
     27 N          59.4190   91.9689    4.7446 N.am    1  UNL1       -0.2681
     28 H          58.2035   90.7118    6.9035 H       1  UNL1        0.1564
     29 H          58.5670   92.4079    4.9694 H       1  UNL1        0.1564
     30 C          61.7055   88.3161   10.6972 C.3     1  UNL1        0.0311
     31 C          60.8478   88.1118    9.4836 C.ar    1  UNL1       -0.0206
     32 C          60.4574   86.7251    9.0659 C.ar    1  UNL1       -0.0042
     33 C          59.5997   86.5209    7.8523 C.ar    1  UNL1        0.0010
     34 C          59.1325   87.7034    7.0567 C.ar    1  UNL1        0.0147
     35 C          59.5229   89.0902    7.4744 C.ar    1  UNL1        0.0513
     36 C          60.3806   89.2944    8.6880 C.ar    1  UNL1        0.0105
@<TRIPOS>BOND
     1    30    31    1
     2    31    32   ar
     3    32    33   ar
     4    33    34   ar
     5    34    35   ar
     6    35    24    1
     7    24    25   am
     8    25    26    2
     9    25    27   am
    10    27     1    1
    11     1     2   ar
    12     2     3   ar
    13     3     4   ar
    14     4     7    1
    15     7     8   ar
    16     8     9   ar
    17     9    10   ar
    18    10    11   ar
    19    11    19    1
    20    19    20    2
    21    20    21    1
    22    21    22    2
    23    22    23    1
    24    11    12   ar
    25    12    13   ar
    26    13    14   ar
    27    14    15    1
    28    14    16   ar
    29     4     5   ar
    30     5     6   ar
    31    35    36   ar
    32    36    31   ar
    33     6     1   ar
    34    16     7   ar
    35    16    10   ar
    36    23    19    1
    37    24    28    1
    38    27    29    1
    39    15    17    1
    40    15    18    1
@<TRIPOS>MOLECULE
*****
 36 40 0 0 0
SMALL
GASTEIGER

@<TRIPOS>ATOM
      1 C          64.6312   90.9032   13.6847 C.ar    1  UNL1        0.0516
      2 C          63.7133   90.2109   12.7213 C.ar    1  UNL1        0.0147
      3 C          63.4445   88.7422   12.8650 C.ar    1  UNL1        0.0013
      4 C          64.0937   87.9658   13.9721 C.ar    1  UNL1        0.0007
      5 C          65.0116   88.6581   14.9355 C.ar    1  UNL1        0.0013
      6 C          65.2804   90.1268   14.7918 C.ar    1  UNL1        0.0147
      7 C          63.8249   86.4971   14.1159 C.ar    1  UNL1        0.0096
      8 C          64.0945   85.6667   15.3356 C.ar    1  UNL1        0.0355
      9 S          63.6756   84.2573   15.0387 S.2     1  UNL1       -0.0863
     10 C          63.1471   84.2167   13.6354 C.ar    1  UNL1        0.0334
     11 C          62.5937   83.0980   12.8033 C.ar    1  UNL1        0.0248
     12 C          62.1326   83.3637   11.4008 C.ar    1  UNL1        0.1005
     13 N          62.2249   84.7479   10.8305 N.ar    1  UNL1       -0.2296
     14 C          62.7783   85.8666   11.6627 C.ar    1  UNL1        0.1258
     15 N          62.8706   87.2509   11.0924 N.pl3   1  UNL1       -0.3426
     16 C          63.2394   85.6009   13.0651 C.ar    1  UNL1        0.0377
     17 H          62.5680   87.4252   10.1719 H       1  UNL1        0.1437
     18 H          63.2338   87.9851   11.6385 H       1  UNL1        0.1437
     19 C          62.5014   81.7138   13.3736 C.2     1  UNL1        0.0268
     20 C          61.2417   81.0139   13.7901 C.2     1  UNL1        0.1195
     21 N          61.6144   79.6539   14.3015 N.2     1  UNL1       -0.1510
     22 N          63.1044   79.5132   14.2011 N.2     1  UNL1       -0.1695
     23 C          63.6527   80.7862   13.6277 C.3     1  UNL1        0.1772
     24 N          65.7122   94.3809   12.1077 N.am    1  UNL1       -0.2681
     25 C          65.4435   92.9122   12.2515 C.2     1  UNL1        0.3082
     26 O          65.7182   91.9838   11.1058 O.2     1  UNL1       -0.2522
     27 N          64.9000   92.3719   13.5409 N.am    1  UNL1       -0.2681
     28 H          65.5319   94.9902   12.8597 H       1  UNL1        0.1564
     29 H          64.7197   92.9813   14.2929 H       1  UNL1        0.1564
     30 C          68.5740   93.7535    7.8162 C.3     1  UNL1        0.0311
     31 C          67.6866   94.6075    8.6725 C.ar    1  UNL1       -0.0206
     32 C          67.3427   96.0018    8.2393 C.ar    1  UNL1       -0.0042
     33 C          66.4553   96.8559    9.0956 C.ar    1  UNL1        0.0010
     34 C          65.9119   96.3155   10.3850 C.ar    1  UNL1        0.0147
     35 C          66.2558   94.9212   10.8182 C.ar    1  UNL1        0.0513
     36 C          67.1432   94.0672    9.9619 C.ar    1  UNL1        0.0105
@<TRIPOS>BOND
     1    30    31    1
     2    31    32   ar
     3    32    33   ar
     4    33    34   ar
     5    34    35   ar
     6    35    24    1
     7    24    25   am
     8    25    26    2
     9    25    27   am
    10    27     1    1
    11     1     2   ar
    12     2     3   ar
    13     3     4   ar
    14     4     7    1
    15     7     8   ar
    16     8     9   ar
    17     9    10   ar
    18    10    11   ar
    19    11    19    1
    20    19    20    2
    21    20    21    1
    22    21    22    2
    23    22    23    1
    24    11    12   ar
    25    12    13   ar
    26    13    14   ar
    27    14    15    1
    28    14    16   ar
    29     4     5   ar
    30     5     6   ar
    31    35    36   ar
    32    36    31   ar
    33     6     1   ar
    34    16     7   ar
    35    16    10   ar
    36    23    19    1
    37    24    28    1
    38    27    29    1
    39    15    17    1
    40    15    18    1
@<TRIPOS>MOLECULE
*****
 36 40 0 0 0
SMALL
GASTEIGER

@<TRIPOS>ATOM
      1 C          59.4583   89.7139    6.9384 C.ar    1  UNL1        0.0516
      2 C          59.3747   88.2278    6.7526 C.ar    1  UNL1        0.0147
      3 C          59.9978   87.3094    7.7617 C.ar    1  UNL1        0.0013
      4 C          60.7045   87.8772    8.9568 C.ar    1  UNL1        0.0007
      5 C          60.7881   89.3633    9.1426 C.ar    1  UNL1        0.0013
      6 C          60.1650   90.2817    8.1334 C.ar    1  UNL1        0.0147
      7 C          61.3277   86.9590    9.9660 C.ar    1  UNL1        0.0096
      8 C          61.2342   85.4619    9.9719 C.ar    1  UNL1        0.0355
      9 S          62.0025   84.9543   11.1560 S.2     1  UNL1       -0.0863
     10 C          62.5707   86.1376   11.8819 C.ar    1  UNL1        0.0334
     11 C          63.4140   86.2470   13.1176 C.ar    1  UNL1        0.0248
     12 C          63.8402   87.5955   13.6178 C.ar    1  UNL1        0.1005
     13 N          63.4231   88.8344   12.8822 N.ar    1  UNL1       -0.2296
     14 C          62.5798   88.7250   11.6465 C.ar    1  UNL1        0.1258
     15 N          62.1628   89.9640   10.9110 N.pl3   1  UNL1       -0.3426
     16 C          62.1536   87.3766   11.1464 C.ar    1  UNL1        0.0377
     17 H          62.4425   90.8490   11.2393 H       1  UNL1        0.1437
     18 H          61.6093   89.8921   10.1000 H       1  UNL1        0.1437
     19 C          63.8310   85.0080   13.8531 C.2     1  UNL1        0.0268
     20 C          63.5364   84.6945   15.2900 C.2     1  UNL1        0.1195
     21 N          64.1392   83.3577   15.6058 N.2     1  UNL1       -0.1510
     22 N          64.8064   82.8451   14.3641 N.2     1  UNL1       -0.1695
     23 C          64.6160   83.8651   13.2807 C.3     1  UNL1        0.1772
     24 N          59.0460   92.1257    3.8139 N.am    1  UNL1       -0.2681
     25 C          59.6691   91.2074    4.8231 C.2     1  UNL1        0.3082
     26 O          61.1261   90.8645    4.7262 O.2     1  UNL1       -0.2522
     27 N          58.8351   90.6321    5.9292 N.am    1  UNL1       -0.2681
     28 H          58.0896   92.3508    3.8775 H       1  UNL1        0.1564
     29 H          57.8788   90.8572    5.9928 H       1  UNL1        0.1564
     30 C          63.6980   93.4020    1.8826 C.3     1  UNL1        0.0311
     31 C          62.2059   93.3393    1.7421 C.ar    1  UNL1       -0.0206
     32 C          61.5477   93.8518    0.4955 C.ar    1  UNL1       -0.0042
     33 C          60.0556   93.7890    0.3549 C.ar    1  UNL1        0.0010
     34 C          59.2218   93.2137    1.4611 C.ar    1  UNL1        0.0147
     35 C          59.8799   92.7011    2.7077 C.ar    1  UNL1        0.0513
     36 C          61.3720   92.7639    2.8482 C.ar    1  UNL1        0.0105
@<TRIPOS>BOND
     1    30    31    1
     2    31    32   ar
     3    32    33   ar
     4    33    34   ar
     5    34    35   ar
     6    35    24    1
     7    24    25   am
     8    25    26    2
     9    25    27   am
    10    27     1    1
    11     1     2   ar
    12     2     3   ar
    13     3     4   ar
    14     4     7    1
    15     7     8   ar
    16     8     9   ar
    17     9    10   ar
    18    10    11   ar
    19    11    19    1
    20    19    20    2
    21    20    21    1
    22    21    22    2
    23    22    23    1
    24    11    12   ar
    25    12    13   ar
    26    13    14   ar
    27    14    15    1
    28    14    16   ar
    29     4     5   ar
    30     5     6   ar
    31    35    36   ar
    32    36    31   ar
    33     6     1   ar
    34    16     7   ar
    35    16    10   ar
    36    23    19    1
    37    24    28    1
    38    27    29    1
    39    15    17    1
    40    15    18    1
@<TRIPOS>MOLECULE
*****
 36 40 0 0 0
SMALL
GASTEIGER

@<TRIPOS>ATOM
      1 C          64.0213   90.5896   12.9461 C.ar    1  UNL1        0.0516
      2 C          64.6171   89.6781   13.9778 C.ar    1  UNL1        0.0147
      3 C          64.3020   88.2117   13.9547 C.ar    1  UNL1        0.0013
      4 C          63.3911   87.6569   12.9000 C.ar    1  UNL1        0.0007
      5 C          62.7954   88.5684   11.8684 C.ar    1  UNL1        0.0013
      6 C          63.1104   90.0347   11.8914 C.ar    1  UNL1        0.0147
      7 C          63.0760   86.1905   12.8769 C.ar    1  UNL1        0.0096
      8 C          62.8557   85.3552   11.6506 C.ar    1  UNL1        0.0355
      9 S          62.5694   83.9505   12.0920 S.2     1  UNL1       -0.0863
     10 C          62.6127   83.9176   13.5910 C.ar    1  UNL1        0.0334
     11 C          62.4074   82.8059   14.5769 C.ar    1  UNL1        0.0248
     12 C          62.5153   83.0786   16.0480 C.ar    1  UNL1        0.1005
     13 N          62.8284   84.4631   16.5331 N.ar    1  UNL1       -0.2296
     14 C          63.0336   85.5748   15.5472 C.ar    1  UNL1        0.1258
     15 N          63.3467   86.9592   16.0323 N.pl3   1  UNL1       -0.3426
     16 C          62.9257   85.3020   14.0761 C.ar    1  UNL1        0.0377
     17 H          63.4175   87.1382   16.9978 H       1  UNL1        0.1437
     18 H          63.4814   87.6888   15.3852 H       1  UNL1        0.1437
     19 C          62.0943   81.4215   14.0917 C.2     1  UNL1        0.0268
     20 C          60.7552   80.7483   14.1509 C.2     1  UNL1        0.1195
     21 N          60.8986   79.3780   13.5579 N.2     1  UNL1       -0.1510
     22 N          62.3265   79.2042   13.1323 N.2     1  UNL1       -0.1695
     23 C          63.0655   80.4672   13.4622 C.3     1  UNL1        0.1772
     24 N          65.4432   94.1369   11.8762 N.am    1  UNL1       -0.2681
     25 C          65.1280   92.6705   11.8531 C.2     1  UNL1        0.3082
     26 O          65.6045   91.8188   10.7140 O.2     1  UNL1       -0.2522
     27 N          64.3365   92.0559   12.9692 N.am    1  UNL1       -0.2681
     28 H          65.1305   94.6959   12.6239 H       1  UNL1        0.1564
     29 H          64.0238   92.6150   13.7169 H       1  UNL1        0.1564
     30 C          68.5892   93.6175    7.7734 C.3     1  UNL1        0.0311
     31 C          67.8078   94.4919    8.7088 C.ar    1  UNL1       -0.0206
     32 C          67.8179   95.9809    8.5280 C.ar    1  UNL1       -0.0042
     33 C          67.0365   96.8553    9.4633 C.ar    1  UNL1        0.0010
     34 C          66.2449   96.2406   10.5794 C.ar    1  UNL1        0.0147
     35 C          66.2348   94.7516   10.7601 C.ar    1  UNL1        0.0513
     36 C          67.0162   93.8772    9.8248 C.ar    1  UNL1        0.0105
@<TRIPOS>BOND
     1    30    31    1
     2    31    32   ar
     3    32    33   ar
     4    33    34   ar
     5    34    35   ar
     6    35    24    1
     7    24    25   am
     8    25    26    2
     9    25    27   am
    10    27     1    1
    11     1     2   ar
    12     2     3   ar
    13     3     4   ar
    14     4     7    1
    15     7     8   ar
    16     8     9   ar
    17     9    10   ar
    18    10    11   ar
    19    11    19    1
    20    19    20    2
    21    20    21    1
    22    21    22    2
    23    22    23    1
    24    11    12   ar
    25    12    13   ar
    26    13    14   ar
    27    14    15    1
    28    14    16   ar
    29     4     5   ar
    30     5     6   ar
    31    35    36   ar
    32    36    31   ar
    33     6     1   ar
    34    16     7   ar
    35    16    10   ar
    36    23    19    1
    37    24    28    1
    38    27    29    1
    39    15    17    1
    40    15    18    1
@<TRIPOS>MOLECULE
*****
 36 40 0 0 0
SMALL
GASTEIGER

@<TRIPOS>ATOM
      1 C          63.5925   87.0497   14.5517 C.ar    1  UNL1        0.0516
      2 C          63.2594   87.0923   13.0898 C.ar    1  UNL1        0.0147
      3 C          63.5146   88.3407   12.2983 C.ar    1  UNL1        0.0013
      4 C          64.1030   89.5466   12.9689 C.ar    1  UNL1        0.0007
      5 C          64.4361   89.5040   14.4308 C.ar    1  UNL1        0.0013
      6 C          64.1809   88.2555   15.2222 C.ar    1  UNL1        0.0147
      7 C          64.3582   90.7950   12.1775 C.ar    1  UNL1        0.0096
      8 C          63.7910   91.1136   10.8260 C.ar    1  UNL1        0.0355
      9 S          64.3077   92.4595   10.4120 S.2     1  UNL1       -0.0863
     10 C          65.1943   92.9728   11.5077 C.ar    1  UNL1        0.0334
     11 C          65.9771   94.2440   11.6528 C.ar    1  UNL1        0.0248
     12 C          66.7913   94.4865   12.8891 C.ar    1  UNL1        0.1005
     13 N          66.8225   93.4578   13.9803 N.ar    1  UNL1       -0.2296
     14 C          66.0396   92.1865   13.8352 C.ar    1  UNL1        0.1258
     15 N          66.0708   91.1578   14.9264 N.pl3   1  UNL1       -0.3426
     16 C          65.2255   91.9441   12.5989 C.ar    1  UNL1        0.0377
     17 H          66.6051   91.3169   15.7378 H       1  UNL1        0.1437
     18 H          65.5569   90.3234   14.8311 H       1  UNL1        0.1437
     19 C          65.9459   95.2728   10.5616 C.2     1  UNL1        0.0268
     20 C          64.7146   95.8775    9.9549 C.2     1  UNL1        0.1195
     21 N          65.1482   96.8559    8.9038 N.2     1  UNL1       -0.1510
     22 N          66.6476   96.8559    8.8610 N.2     1  UNL1       -0.1695
     23 C          67.1407   95.8775    9.8855 C.3     1  UNL1        0.1772
     24 N          62.7270   83.2774   15.4292 N.am    1  UNL1       -0.2681
     25 C          62.9822   84.5258   14.6379 C.2     1  UNL1        0.3082
     26 O          62.8823   84.4989   13.1415 O.2     1  UNL1       -0.2522
     27 N          63.3373   85.8012   15.3430 N.am    1  UNL1       -0.2681
     28 H          62.7925   83.2951   16.4114 H       1  UNL1        0.1564
     29 H          63.4028   85.8189   16.3252 H       1  UNL1        0.1564
     30 C          59.2012   79.6952   14.1115 C.3     1  UNL1        0.0311
     31 C          60.6090   80.2108   14.0653 C.ar    1  UNL1       -0.0206
     32 C          61.6617   79.4510   13.3139 C.ar    1  UNL1       -0.0042
     33 C          63.0696   79.9667   13.2677 C.ar    1  UNL1        0.0010
     34 C          63.4246   81.2421   13.9728 C.ar    1  UNL1        0.0147
     35 C          62.3719   82.0019   14.7241 C.ar    1  UNL1        0.0513
     36 C          60.9640   81.4862   14.7704 C.ar    1  UNL1        0.0105
@<TRIPOS>BOND
     1    30    31    1
     2    31    32   ar
     3    32    33   ar
     4    33    34   ar
     5    34    35   ar
     6    35    24    1
     7    24    25   am
     8    25    26    2
     9    25    27   am
    10    27     1    1
    11     1     2   ar
    12     2     3   ar
    13     3     4   ar
    14     4     7    1
    15     7     8   ar
    16     8     9   ar
    17     9    10   ar
    18    10    11   ar
    19    11    19    1
    20    19    20    2
    21    20    21    1
    22    21    22    2
    23    22    23    1
    24    11    12   ar
    25    12    13   ar
    26    13    14   ar
    27    14    15    1
    28    14    16   ar
    29     4     5   ar
    30     5     6   ar
    31    35    36   ar
    32    36    31   ar
    33     6     1   ar
    34    16     7   ar
    35    16    10   ar
    36    23    19    1
    37    24    28    1
    38    27    29    1
    39    15    17    1
    40    15    18    1
