@<TRIPOS>MOLECULE
*****
 35 38 0 0 0
SMALL
GASTEIGER

@<TRIPOS>ATOM
      1 N          64.4343   89.8673   13.9421 N.pl3   1  UNL1       -0.2867
      2 C          65.4970   90.8784   14.2557 C.3     1  UNL1        0.0948
      3 C          65.0039   91.7443   13.1345 C.3     1  UNL1        0.0506
      4 C          63.9412   90.7332   12.8209 C.3     1  UNL1        0.1525
      5 C          63.5956   85.9973   14.2058 C.ar    1  UNL1        0.1362
      6 C          63.9985   87.3245   13.6348 C.ar    1  UNL1        0.0686
      7 C          64.0314   88.5400   14.5132 C.ar    1  UNL1        0.1364
      8 N          63.6616   88.4282   15.9625 N.ar    1  UNL1       -0.2083
      9 C          63.2587   87.1010   16.5335 C.ar    1  UNL1        0.2374
     10 N          63.2258   85.8855   15.6551 N.ar    1  UNL1       -0.2083
     11 C          63.4637   81.1354   10.6923 C.3     1  UNL1        0.0897
     12 N          63.4967   82.3508   11.5707 N.3     1  UNL1       -0.2686
     13 C          62.7363   83.5821   11.1762 C.3     1  UNL1        0.0939
     14 C          62.7693   84.7976   12.0545 C.3     1  UNL1        0.1095
     15 N          63.5626   84.7818   13.3274 N.pl3   1  UNL1       -0.2903
     16 C          64.3230   83.5505   13.7219 C.3     1  UNL1        0.1095
     17 C          64.2901   82.3350   12.8436 C.3     1  UNL1        0.0939
     18 C          62.8889   86.9891   17.9829 C.3     1  UNL1        0.4524
     19 F          62.5190   86.8774   19.4323 F       1  UNL1       -0.1632
     20 F          63.2398   88.4335   18.1839 F       1  UNL1       -0.1632
     21 F          62.5379   85.5447   17.7820 F       1  UNL1       -0.1632
     22 C          62.8412   90.6306   11.8064 C.2     1  UNL1        0.2406
     23 O          63.0655   91.1164   10.4051 O.2     1  UNL1       -0.2733
     24 N          61.5167   90.0421   12.1932 N.am    1  UNL1       -0.3027
     25 H          61.3695   89.7232   13.1129 H       1  UNL1        0.1495
     26 C          60.4167   89.9394   11.1786 C.3     1  UNL1        0.0941
     27 C          59.7216   88.6290   10.9561 C.3     1  UNL1        0.0476
     28 C          60.1839   87.7109    9.8636 C.ar    1  UNL1       -0.0204
     29 C          59.2202   87.2570    8.8075 C.ar    1  UNL1       -0.0035
     30 C          59.6824   86.3389    7.7150 C.ar    1  UNL1        0.0100
     31 C          61.1084   85.8747    7.6786 C.ar    1  UNL1        0.0684
     32 C          62.0720   86.3286    8.7348 C.ar    1  UNL1        0.0100
     33 C          61.6098   87.2467    9.8272 C.ar    1  UNL1       -0.0035
     34 C          61.5706   84.9566    6.5862 C.1     1  UNL1        0.1004
     35 N          62.0329   84.0386    5.4938 N.1     1  UNL1       -0.1908
@<TRIPOS>BOND
     1    11    12    1
     2    12    13    1
     3    13    14    1
     4    14    15    1
     5    15     5    1
     6     5     6   ar
     7     6     7   ar
     8     7     1    1
     9     1     2    1
    10     2     3    1
    11     3     4    1
    12     4    22    1
    13    22    23    2
    14    22    24   am
    15    24    26    1
    16    26    27    1
    17    27    28    1
    18    28    29   ar
    19    29    30   ar
    20    30    31   ar
    21    31    34    1
    22    34    35    3
    23    31    32   ar
    24    32    33   ar
    25     7     8   ar
    26     8     9   ar
    27     9    18    1
    28    18    19    1
    29    18    20    1
    30    18    21    1
    31     9    10   ar
    32    15    16    1
    33    16    17    1
    34    17    12    1
    35    10     5   ar
    36     4     1    1
    37    33    28   ar
    38    24    25    1
@<TRIPOS>MOLECULE
*****
 35 38 0 0 0
SMALL
GASTEIGER

@<TRIPOS>ATOM
      1 N          62.3892   86.1633   10.1902 N.pl3   1  UNL1       -0.2867
      2 C          62.4391   85.5956    8.8027 C.3     1  UNL1        0.0948
      3 C          62.9618   84.3010    9.3513 C.3     1  UNL1        0.0506
      4 C          62.9118   84.8688   10.7388 C.3     1  UNL1        0.1525
      5 C          62.5807   89.9083   11.4897 C.ar    1  UNL1        0.1362
      6 C          62.9855   88.5915   10.8965 C.ar    1  UNL1        0.0686
      7 C          61.9843   87.4802   10.7835 C.ar    1  UNL1        0.1364
      8 N          60.5783   87.6859   11.2638 N.ar    1  UNL1       -0.2083
      9 C          60.1734   89.0027   11.8570 C.ar    1  UNL1        0.2374
     10 N          61.1746   90.1139   11.9700 N.ar    1  UNL1       -0.2083
     11 C          66.5855   94.3532   11.9415 C.3     1  UNL1        0.0897
     12 N          65.5843   93.2420   11.8286 N.3     1  UNL1       -0.2686
     13 C          64.9459   92.9393   10.5054 C.3     1  UNL1        0.0939
     14 C          63.9447   91.8281   10.3925 C.3     1  UNL1        0.1095
     15 N          63.5819   91.0195   11.6027 N.pl3   1  UNL1       -0.2903
     16 C          64.2203   91.3222   12.9258 C.3     1  UNL1        0.1095
     17 C          65.2215   92.4335   13.0388 C.3     1  UNL1        0.0939
     18 C          58.7673   89.2084   12.3374 C.3     1  UNL1        0.4524
     19 F          57.3613   89.4141   12.8177 F       1  UNL1       -0.1632
     20 F          58.6712   90.4619   11.5192 F       1  UNL1       -0.1632
     21 F          58.8634   87.9549   13.1556 F       1  UNL1       -0.1632
     22 C          63.2461   84.3549   12.1078 C.2     1  UNL1        0.2406
     23 O          64.5533   83.6600   12.3495 O.2     1  UNL1       -0.2733
     24 N          62.2731   84.5358   13.2350 N.am    1  UNL1       -0.3027
     25 H          61.4152   84.9918   13.0764 H       1  UNL1        0.1495
     26 C          62.6074   84.0219   14.6040 C.3     1  UNL1        0.0941
     27 C          63.7011   84.6683   15.4014 C.3     1  UNL1        0.0476
     28 C          63.6718   86.1467   15.6540 C.ar    1  UNL1       -0.0204
     29 C          63.0342   86.6818   16.9018 C.ar    1  UNL1       -0.0035
     30 C          63.0049   88.1602   17.1544 C.ar    1  UNL1        0.0100
     31 C          63.6132   89.1033   16.1591 C.ar    1  UNL1        0.0684
     32 C          64.2507   88.5680   14.9112 C.ar    1  UNL1        0.0100
     33 C          64.2800   87.0898   14.6587 C.ar    1  UNL1       -0.0035
     34 C          63.5839   90.5815   16.4116 C.1     1  UNL1        0.1004
     35 N          63.5546   92.0598   16.6642 N.1     1  UNL1       -0.1908
@<TRIPOS>BOND
     1    11    12    1
     2    12    13    1
     3    13    14    1
     4    14    15    1
     5    15     5    1
     6     5     6   ar
     7     6     7   ar
     8     7     1    1
     9     1     2    1
    10     2     3    1
    11     3     4    1
    12     4    22    1
    13    22    23    2
    14    22    24   am
    15    24    26    1
    16    26    27    1
    17    27    28    1
    18    28    29   ar
    19    29    30   ar
    20    30    31   ar
    21    31    34    1
    22    34    35    3
    23    31    32   ar
    24    32    33   ar
    25     7     8   ar
    26     8     9   ar
    27     9    18    1
    28    18    19    1
    29    18    20    1
    30    18    21    1
    31     9    10   ar
    32    15    16    1
    33    16    17    1
    34    17    12    1
    35    10     5   ar
    36     4     1    1
    37    33    28   ar
    38    24    25    1
@<TRIPOS>MOLECULE
*****
 35 38 0 0 0
SMALL
GASTEIGER

@<TRIPOS>ATOM
      1 N          63.5601   90.2755   15.0810 N.pl3   1  UNL1       -0.2867
      2 C          63.5274   91.1866   16.2722 C.3     1  UNL1        0.0948
      3 C          63.5108   89.9950   17.1831 C.3     1  UNL1        0.0506
      4 C          63.5435   89.0839   15.9919 C.3     1  UNL1        0.1525
      5 C          62.7494   89.8437   11.2201 C.ar    1  UNL1        0.1362
      6 C          62.7146   89.6454   12.7065 C.ar    1  UNL1        0.0686
      7 C          63.5950   90.4739   13.5945 C.ar    1  UNL1        0.1364
      8 N          64.5103   91.5006   12.9961 N.ar    1  UNL1       -0.2083
      9 C          64.5451   91.6989   11.5097 C.ar    1  UNL1        0.2374
     10 N          63.6647   90.8704   10.6217 N.ar    1  UNL1       -0.2083
     11 C          59.2277   86.5301    7.6681 C.3     1  UNL1        0.0897
     12 N          60.1081   87.3585    8.5561 N.3     1  UNL1       -0.2686
     13 C          61.1532   86.6965    9.4043 C.3     1  UNL1        0.0939
     14 C          62.0336   87.5249   10.2923 C.3     1  UNL1        0.1095
     15 N          61.8690   89.0153   10.3321 N.pl3   1  UNL1       -0.2903
     16 C          60.8238   89.6773    9.4839 C.3     1  UNL1        0.1095
     17 C          59.9434   88.8488    8.5959 C.3     1  UNL1        0.0939
     18 C          65.4604   92.7256   10.9113 C.3     1  UNL1        0.4524
     19 F          66.3756   93.7523   10.3128 F       1  UNL1       -0.1632
     20 F          64.3802   93.1294    9.9521 F       1  UNL1       -0.1632
     21 F          66.5406   92.3218   11.8705 F       1  UNL1       -0.1632
     22 C          63.5549   87.5971   15.7938 C.2     1  UNL1        0.2406
     23 O          62.8452   86.7051   16.7687 O.2     1  UNL1       -0.2733
     24 N          64.2761   87.0023   14.6206 N.am    1  UNL1       -0.3027
     25 H          64.7419   87.5878   13.9807 H       1  UNL1        0.1495
     26 C          64.2875   85.5156   14.4225 C.3     1  UNL1        0.0941
     27 C          63.0085   84.7880   14.1314 C.3     1  UNL1        0.0476
     28 C          63.0035   83.6337   13.1733 C.ar    1  UNL1       -0.0204
     29 C          63.4829   83.8259   11.7650 C.ar    1  UNL1       -0.0035
     30 C          63.4780   82.6717   10.8069 C.ar    1  UNL1        0.0100
     31 C          62.9936   81.3254   11.2572 C.ar    1  UNL1        0.0684
     32 C          62.5142   81.1332   12.6655 C.ar    1  UNL1        0.0100
     33 C          62.5192   82.2874   13.6235 C.ar    1  UNL1       -0.0035
     34 C          62.9887   80.1712   10.2992 C.1     1  UNL1        0.1004
     35 N          62.9837   79.0170    9.3412 N.1     1  UNL1       -0.1908
@<TRIPOS>BOND
     1    11    12    1
     2    12    13    1
     3    13    14    1
     4    14    15    1
     5    15     5    1
     6     5     6   ar
     7     6     7   ar
     8     7     1    1
     9     1     2    1
    10     2     3    1
    11     3     4    1
    12     4    22    1
    13    22    23    2
    14    22    24   am
    15    24    26    1
    16    26    27    1
    17    27    28    1
    18    28    29   ar
    19    29    30   ar
    20    30    31   ar
    21    31    34    1
    22    34    35    3
    23    31    32   ar
    24    32    33   ar
    25     7     8   ar
    26     8     9   ar
    27     9    18    1
    28    18    19    1
    29    18    20    1
    30    18    21    1
    31     9    10   ar
    32    15    16    1
    33    16    17    1
    34    17    12    1
    35    10     5   ar
    36     4     1    1
    37    33    28   ar
    38    24    25    1
@<TRIPOS>MOLECULE
*****
 35 38 0 0 0
SMALL
GASTEIGER

@<TRIPOS>ATOM
      1 N          63.6150   87.5175   15.6152 N.pl3   1  UNL1       -0.2867
      2 C          62.9005   87.3376   16.9217 C.3     1  UNL1        0.0948
      3 C          63.1348   85.8579   16.8462 C.3     1  UNL1        0.0506
      4 C          63.8494   86.0378   15.5396 C.3     1  UNL1        0.1525
      5 C          65.4291   90.7715   14.2474 C.ar    1  UNL1        0.1362
      6 C          65.0895   89.5980   15.1178 C.ar    1  UNL1        0.0686
      7 C          63.9546   88.6910   14.7447 C.ar    1  UNL1        0.1364
      8 N          63.1593   88.9573   13.5011 N.ar    1  UNL1       -0.2083
      9 C          63.4989   90.1308   12.6307 C.ar    1  UNL1        0.2374
     10 N          64.6338   91.0378   13.0038 N.ar    1  UNL1       -0.2083
     11 C          69.9687   94.3997   15.7399 C.3     1  UNL1        0.0897
     12 N          68.8338   93.4927   15.3668 N.3     1  UNL1       -0.2686
     13 C          67.5790   93.4843   16.1886 C.3     1  UNL1        0.0939
     14 C          66.4441   92.5773   15.8154 C.3     1  UNL1        0.1095
     15 N          66.5640   91.6785   14.6205 N.pl3   1  UNL1       -0.2903
     16 C          67.8188   91.6869   13.7987 C.3     1  UNL1        0.1095
     17 C          68.9537   92.5940   14.1719 C.3     1  UNL1        0.0939
     18 C          62.7036   90.3972   11.3870 C.3     1  UNL1        0.4524
     19 F          61.9082   90.6636   10.1435 F       1  UNL1       -0.1632
     20 F          61.5668   89.5908   11.9414 F       1  UNL1       -0.1632
     21 F          63.8404   91.2036   10.8327 F       1  UNL1       -0.1632
     22 C          64.5203   85.1188   14.5623 C.2     1  UNL1        0.2406
     23 O          66.0159   85.0064   14.5436 O.2     1  UNL1       -0.2733
     24 N          63.6955   84.3121   13.6036 N.am    1  UNL1       -0.3027
     25 H          62.7138   84.3858   13.6158 H       1  UNL1        0.1495
     26 C          64.3664   83.3930   12.6263 C.3     1  UNL1        0.0941
     27 C          63.8742   83.3141   11.2116 C.3     1  UNL1        0.0476
     28 C          63.0674   84.4392   10.6342 C.ar    1  UNL1       -0.0204
     29 C          63.1878   84.7782    9.1780 C.ar    1  UNL1       -0.0035
     30 C          62.3810   85.9034    8.6007 C.ar    1  UNL1        0.0100
     31 C          61.4540   86.6895    9.4797 C.ar    1  UNL1        0.0684
     32 C          61.3337   86.3505   10.9359 C.ar    1  UNL1        0.0100
     33 C          62.1404   85.2254   11.5132 C.ar    1  UNL1       -0.0035
     34 C          60.6473   87.8147    8.9024 C.1     1  UNL1        0.1004
     35 N          59.8406   88.9398    8.3251 N.1     1  UNL1       -0.1908
@<TRIPOS>BOND
     1    11    12    1
     2    12    13    1
     3    13    14    1
     4    14    15    1
     5    15     5    1
     6     5     6   ar
     7     6     7   ar
     8     7     1    1
     9     1     2    1
    10     2     3    1
    11     3     4    1
    12     4    22    1
    13    22    23    2
    14    22    24   am
    15    24    26    1
    16    26    27    1
    17    27    28    1
    18    28    29   ar
    19    29    30   ar
    20    30    31   ar
    21    31    34    1
    22    34    35    3
    23    31    32   ar
    24    32    33   ar
    25     7     8   ar
    26     8     9   ar
    27     9    18    1
    28    18    19    1
    29    18    20    1
    30    18    21    1
    31     9    10   ar
    32    15    16    1
    33    16    17    1
    34    17    12    1
    35    10     5   ar
    36     4     1    1
    37    33    28   ar
    38    24    25    1
@<TRIPOS>MOLECULE
*****
 35 38 0 0 0
SMALL
GASTEIGER

@<TRIPOS>ATOM
      1 N          62.1913   86.7153   10.7236 N.pl3   1  UNL1       -0.2867
      2 C          61.7363   86.7498    9.2947 C.3     1  UNL1        0.0948
      3 C          61.6398   88.2452    9.3616 C.3     1  UNL1        0.0506
      4 C          62.0947   88.2106   10.7906 C.3     1  UNL1        0.1525
      5 C          62.9269   83.1146   12.2218 C.ar    1  UNL1        0.1362
      6 C          62.5369   84.1965   11.2588 C.ar    1  UNL1        0.0686
      7 C          62.5813   85.6334   11.6868 C.ar    1  UNL1        0.1364
      8 N          63.0156   85.9885   13.0779 N.ar    1  UNL1       -0.2083
      9 C          63.4055   84.9067   14.0410 C.ar    1  UNL1        0.2374
     10 N          63.3612   83.4698   13.6129 N.ar    1  UNL1       -0.2083
     11 C          62.7496   77.3668   10.5097 C.3     1  UNL1        0.0897
     12 N          62.7939   78.8038   10.9377 N.3     1  UNL1       -0.2686
     13 C          62.5575   79.1662   12.3739 C.3     1  UNL1        0.0939
     14 C          62.6019   80.6031   12.8020 C.3     1  UNL1        0.1095
     15 N          62.8826   81.6777   11.7938 N.pl3   1  UNL1       -0.2903
     16 C          63.1190   81.3153   10.3576 C.3     1  UNL1        0.1095
     17 C          63.0747   79.8784    9.9296 C.3     1  UNL1        0.0939
     18 C          63.8398   85.2618   15.4322 C.3     1  UNL1        0.4524
     19 F          64.2741   85.6169   16.8233 F       1  UNL1       -0.1632
     20 F          62.5036   84.8301   15.9595 F       1  UNL1       -0.1632
     21 F          65.1761   85.6935   14.9049 F       1  UNL1       -0.1632
     22 C          62.3482   89.2436   11.8483 C.2     1  UNL1        0.2406
     23 O          61.6301   90.5596   11.7987 O.2     1  UNL1       -0.2733
     24 N          63.3197   88.9605   12.9555 N.am    1  UNL1       -0.3027
     25 H          63.7910   88.0968   12.9881 H       1  UNL1        0.1495
     26 C          63.5732   89.9935   14.0132 C.3     1  UNL1        0.0941
     27 C          64.9456   90.5754   14.1796 C.3     1  UNL1        0.0476
     28 C          65.3481   91.7854   13.3895 C.ar    1  UNL1       -0.0204
     29 C          66.1540   92.8711   14.0388 C.ar    1  UNL1       -0.0035
     30 C          66.5565   94.0810   13.2487 C.ar    1  UNL1        0.0100
     31 C          66.1530   94.2051   11.8093 C.ar    1  UNL1        0.0684
     32 C          65.3470   93.1193   11.1600 C.ar    1  UNL1        0.0100
     33 C          64.9446   91.9095   11.9501 C.ar    1  UNL1       -0.0035
     34 C          66.5554   95.4149   11.0192 C.1     1  UNL1        0.1004
     35 N          66.9579   96.6248   10.2291 N.1     1  UNL1       -0.1908
@<TRIPOS>BOND
     1    11    12    1
     2    12    13    1
     3    13    14    1
     4    14    15    1
     5    15     5    1
     6     5     6   ar
     7     6     7   ar
     8     7     1    1
     9     1     2    1
    10     2     3    1
    11     3     4    1
    12     4    22    1
    13    22    23    2
    14    22    24   am
    15    24    26    1
    16    26    27    1
    17    27    28    1
    18    28    29   ar
    19    29    30   ar
    20    30    31   ar
    21    31    34    1
    22    34    35    3
    23    31    32   ar
    24    32    33   ar
    25     7     8   ar
    26     8     9   ar
    27     9    18    1
    28    18    19    1
    29    18    20    1
    30    18    21    1
    31     9    10   ar
    32    15    16    1
    33    16    17    1
    34    17    12    1
    35    10     5   ar
    36     4     1    1
    37    33    28   ar
    38    24    25    1
@<TRIPOS>MOLECULE
*****
 35 38 0 0 0
SMALL
GASTEIGER

@<TRIPOS>ATOM
      1 N          61.9887   88.6347   10.4278 N.pl3   1  UNL1       -0.2867
      2 C          61.2058   88.9592    9.1902 C.3     1  UNL1        0.0948
      3 C          60.9049   87.5022    8.9985 C.3     1  UNL1        0.0506
      4 C          61.6878   87.1777   10.2361 C.3     1  UNL1        0.1525
      5 C          64.2726   91.4620   12.0216 C.ar    1  UNL1        0.1362
      6 C          63.5062   90.6613   11.0109 C.ar    1  UNL1        0.0686
      7 C          62.7551   89.4354   11.4386 C.ar    1  UNL1        0.1364
      8 N          62.7703   89.0102   12.8770 N.ar    1  UNL1       -0.2083
      9 C          63.5367   89.8109   13.8876 C.ar    1  UNL1        0.2374
     10 N          64.2878   91.0368   13.4600 N.ar    1  UNL1       -0.2083
     11 C          67.2770   96.3658   10.3109 C.3     1  UNL1        0.0897
     12 N          66.5259   95.1398   10.7386 N.3     1  UNL1       -0.2686
     13 C          65.7780   94.3266    9.7242 C.3     1  UNL1        0.0939
     14 C          65.0269   93.1006   10.1519 C.3     1  UNL1        0.1095
     15 N          65.0237   92.6880   11.5939 N.pl3   1  UNL1       -0.2903
     16 C          65.7716   93.5013   12.6084 C.3     1  UNL1        0.1095
     17 C          66.5227   94.7272   12.1807 C.3     1  UNL1        0.0939
     18 C          63.5519   89.3857   15.3261 C.3     1  UNL1        0.4524
     19 F          63.5672   88.9605   16.7644 F       1  UNL1       -0.1632
     20 F          65.0006   89.0171   15.2017 F       1  UNL1       -0.1632
     21 F          62.1033   89.7542   15.4505 F       1  UNL1       -0.1632
     22 C          62.0287   85.9180   10.9757 C.2     1  UNL1        0.2406
     23 O          61.5317   85.7126   12.3760 O.2     1  UNL1       -0.2733
     24 N          62.8665   84.8637   10.3150 N.am    1  UNL1       -0.3027
     25 H          63.1927   84.9985    9.3959 H       1  UNL1        0.1495
     26 C          63.2074   83.6040   11.0545 C.3     1  UNL1        0.0941
     27 C          64.2325   83.6311   12.1492 C.3     1  UNL1        0.0476
     28 C          63.8908   84.2282   13.4822 C.ar    1  UNL1       -0.0204
     29 C          64.6631   85.4068   13.9961 C.ar    1  UNL1       -0.0035
     30 C          64.3214   86.0039   15.3291 C.ar    1  UNL1        0.0100
     31 C          63.2074   85.4223   16.1481 C.ar    1  UNL1        0.0684
     32 C          62.4350   84.2436   15.6340 C.ar    1  UNL1        0.0100
     33 C          62.7768   83.6466   14.3011 C.ar    1  UNL1       -0.0035
     34 C          62.8657   86.0194   17.4810 C.1     1  UNL1        0.1004
     35 N          62.5240   86.6164   18.8139 N.1     1  UNL1       -0.1908
@<TRIPOS>BOND
     1    11    12    1
     2    12    13    1
     3    13    14    1
     4    14    15    1
     5    15     5    1
     6     5     6   ar
     7     6     7   ar
     8     7     1    1
     9     1     2    1
    10     2     3    1
    11     3     4    1
    12     4    22    1
    13    22    23    2
    14    22    24   am
    15    24    26    1
    16    26    27    1
    17    27    28    1
    18    28    29   ar
    19    29    30   ar
    20    30    31   ar
    21    31    34    1
    22    34    35    3
    23    31    32   ar
    24    32    33   ar
    25     7     8   ar
    26     8     9   ar
    27     9    18    1
    28    18    19    1
    29    18    20    1
    30    18    21    1
    31     9    10   ar
    32    15    16    1
    33    16    17    1
    34    17    12    1
    35    10     5   ar
    36     4     1    1
    37    33    28   ar
    38    24    25    1
@<TRIPOS>MOLECULE
*****
 35 38 0 0 0
SMALL
GASTEIGER

@<TRIPOS>ATOM
      1 N          63.4989   85.2339   14.5633 N.pl3   1  UNL1       -0.2867
      2 C          63.7721   84.4294   15.7996 C.3     1  UNL1        0.0948
      3 C          63.9679   85.6953   16.5801 C.3     1  UNL1        0.0506
      4 C          63.6947   86.4998   15.3438 C.3     1  UNL1        0.1525
      5 C          62.1511   85.5999   10.8486 C.ar    1  UNL1        0.1362
      6 C          62.4827   85.9260   12.2746 C.ar    1  UNL1        0.0686
      7 C          63.1673   84.9076   13.1372 C.ar    1  UNL1        0.1364
      8 N          63.5204   83.5631   12.5738 N.ar    1  UNL1       -0.2083
      9 C          63.1888   83.2369   11.1478 C.ar    1  UNL1        0.2374
     10 N          62.5041   84.2553   10.2852 N.ar    1  UNL1       -0.2083
     11 C          59.4126   89.6734    7.3980 C.3     1  UNL1        0.0897
     12 N          60.0972   88.6550    8.2607 N.3     1  UNL1       -0.2686
     13 C          59.9289   87.1928    7.9721 C.3     1  UNL1        0.0939
     14 C          60.6135   86.1744    8.8347 C.3     1  UNL1        0.1095
     15 N          61.4665   86.6183    9.9859 N.pl3   1  UNL1       -0.2903
     16 C          61.6348   88.0805   10.2745 C.3     1  UNL1        0.1095
     17 C          60.9502   89.0989    9.4119 C.3     1  UNL1        0.0939
     18 C          63.5418   81.8923   10.5844 C.3     1  UNL1        0.4524
     19 F          63.8948   80.5477   10.0209 F       1  UNL1       -0.1632
     20 F          64.5208   82.5405    9.6510 F       1  UNL1       -0.1632
     21 F          62.5628   81.2440   11.5178 F       1  UNL1       -0.1632
     22 C          63.6400   87.9637   15.0216 C.2     1  UNL1        0.2406
     23 O          63.2302   88.9489   16.0759 O.2     1  UNL1       -0.2733
     24 N          63.9950   88.4425   13.6451 N.am    1  UNL1       -0.3027
     25 H          64.2640   87.7959   12.9531 H       1  UNL1        0.1495
     26 C          63.9403   89.9064   13.3229 C.3     1  UNL1        0.0941
     27 C          65.0097   90.8269   13.8319 C.3     1  UNL1        0.0476
     28 C          65.4046   92.0327   13.0319 C.ar    1  UNL1       -0.0204
     29 C          66.1444   93.1597   13.6895 C.ar    1  UNL1       -0.0035
     30 C          66.5394   94.3656   12.8894 C.ar    1  UNL1        0.0100
     31 C          66.1944   94.4444   11.4318 C.ar    1  UNL1        0.0684
     32 C          65.4546   93.3173   10.7741 C.ar    1  UNL1        0.0100
     33 C          65.0597   92.1115   11.5742 C.ar    1  UNL1       -0.0035
     34 C          66.5893   95.6501   10.6317 C.1     1  UNL1        0.1004
     35 N          66.9843   96.8559    9.8317 N.1     1  UNL1       -0.1908
@<TRIPOS>BOND
     1    11    12    1
     2    12    13    1
     3    13    14    1
     4    14    15    1
     5    15     5    1
     6     5     6   ar
     7     6     7   ar
     8     7     1    1
     9     1     2    1
    10     2     3    1
    11     3     4    1
    12     4    22    1
    13    22    23    2
    14    22    24   am
    15    24    26    1
    16    26    27    1
    17    27    28    1
    18    28    29   ar
    19    29    30   ar
    20    30    31   ar
    21    31    34    1
    22    34    35    3
    23    31    32   ar
    24    32    33   ar
    25     7     8   ar
    26     8     9   ar
    27     9    18    1
    28    18    19    1
    29    18    20    1
    30    18    21    1
    31     9    10   ar
    32    15    16    1
    33    16    17    1
    34    17    12    1
    35    10     5   ar
    36     4     1    1
    37    33    28   ar
    38    24    25    1
@<TRIPOS>MOLECULE
*****
 35 38 0 0 0
SMALL
GASTEIGER

@<TRIPOS>ATOM
      1 N          63.5699   91.1217   11.1891 N.pl3   1  UNL1       -0.2867
      2 C          64.1128   91.9487   10.0615 C.3     1  UNL1        0.0948
      3 C          64.9848   92.6941   11.0280 C.3     1  UNL1        0.0506
      4 C          64.4419   91.8671   12.1556 C.3     1  UNL1        0.1525
      5 C          61.9997   87.4770   11.2046 C.ar    1  UNL1        0.1362
      6 C          63.0001   88.5888   11.0906 C.ar    1  UNL1        0.0686
      7 C          62.5695   90.0099   11.3031 C.ar    1  UNL1        0.1364
      8 N          61.1385   90.3191   11.6295 N.ar    1  UNL1       -0.2083
      9 C          60.1381   89.2073   11.7435 C.ar    1  UNL1        0.2374
     10 N          60.5687   87.7862   11.5310 N.ar    1  UNL1       -0.2083
     11 C          63.7221   81.7927   10.3546 C.3     1  UNL1        0.0897
     12 N          63.2915   83.2138   10.5671 N.3     1  UNL1       -0.2686
     13 C          63.2271   84.1597    9.4048 C.3     1  UNL1        0.0939
     14 C          62.7965   85.5808    9.6173 C.3     1  UNL1        0.1095
     15 N          62.4303   86.0559   10.9921 N.pl3   1  UNL1       -0.2903
     16 C          62.4947   85.1100   12.1544 C.3     1  UNL1        0.1095
     17 C          62.9253   83.6889   11.9419 C.3     1  UNL1        0.0939
     18 C          58.7070   89.5165   12.0700 C.3     1  UNL1        0.4524
     19 F          57.2761   89.8258   12.3964 F       1  UNL1       -0.1632
     20 F          58.8467   90.8572   11.4120 F       1  UNL1       -0.1632
     21 F          58.5674   88.1758   12.7279 F       1  UNL1       -0.1632
     22 C          64.6746   91.8095   13.6362 C.2     1  UNL1        0.2406
     23 O          65.8835   92.4682   14.2317 O.2     1  UNL1       -0.2733
     24 N          63.6982   91.0932   14.5216 N.am    1  UNL1       -0.3027
     25 H          62.9047   90.6609   14.1308 H       1  UNL1        0.1495
     26 C          63.9309   91.0356   16.0023 C.3     1  UNL1        0.0941
     27 C          63.2308   90.0003   16.8317 C.3     1  UNL1        0.0476
     28 C          63.3852   88.5451   16.5020 C.ar    1  UNL1       -0.0204
     29 C          62.7983   87.5043   17.4087 C.ar    1  UNL1       -0.0035
     30 C          62.9527   86.0491   17.0790 C.ar    1  UNL1        0.0100
     31 C          63.6940   85.6347   15.8426 C.ar    1  UNL1        0.0684
     32 C          64.2810   86.6756   14.9359 C.ar    1  UNL1        0.0100
     33 C          64.1266   88.1308   15.2656 C.ar    1  UNL1       -0.0035
     34 C          63.8484   84.1796   15.5129 C.1     1  UNL1        0.1004
     35 N          64.0029   82.7245   15.1832 N.1     1  UNL1       -0.1908
@<TRIPOS>BOND
     1    11    12    1
     2    12    13    1
     3    13    14    1
     4    14    15    1
     5    15     5    1
     6     5     6   ar
     7     6     7   ar
     8     7     1    1
     9     1     2    1
    10     2     3    1
    11     3     4    1
    12     4    22    1
    13    22    23    2
    14    22    24   am
    15    24    26    1
    16    26    27    1
    17    27    28    1
    18    28    29   ar
    19    29    30   ar
    20    30    31   ar
    21    31    34    1
    22    34    35    3
    23    31    32   ar
    24    32    33   ar
    25     7     8   ar
    26     8     9   ar
    27     9    18    1
    28    18    19    1
    29    18    20    1
    30    18    21    1
    31     9    10   ar
    32    15    16    1
    33    16    17    1
    34    17    12    1
    35    10     5   ar
    36     4     1    1
    37    33    28   ar
    38    24    25    1
@<TRIPOS>MOLECULE
*****
 35 38 0 0 0
SMALL
GASTEIGER

@<TRIPOS>ATOM
      1 N          63.2961   90.4906   12.4704 N.pl3   1  UNL1       -0.2867
      2 C          64.3272   91.3653   11.8210 C.3     1  UNL1        0.0948
      3 C          64.9047   91.6847   13.1680 C.3     1  UNL1        0.0506
      4 C          63.8735   90.8101   13.8175 C.3     1  UNL1        0.1525
      5 C          61.2323   87.8523   10.3421 C.ar    1  UNL1        0.1362
      6 C          62.3697   88.6966   10.8354 C.ar    1  UNL1        0.0686
      7 C          62.1586   89.6462   11.9772 C.ar    1  UNL1        0.1364
      8 N          60.8102   89.7514   12.6257 N.ar    1  UNL1       -0.2083
      9 C          59.6729   88.9070   12.1325 C.ar    1  UNL1        0.2374
     10 N          59.8839   87.9575   10.9907 N.ar    1  UNL1       -0.2083
     11 C          62.0764   84.0539    5.7748 C.3     1  UNL1        0.0897
     12 N          61.8654   85.0035    6.9166 N.3     1  UNL1       -0.2686
     13 C          60.5583   85.7251    7.0602 C.3     1  UNL1        0.0939
     14 C          60.3472   86.6747    8.2020 C.3     1  UNL1        0.1095
     15 N          61.4433   86.9027    9.2003 N.pl3   1  UNL1       -0.2903
     16 C          62.7504   86.1810    9.0567 C.3     1  UNL1        0.1095
     17 C          62.9615   85.2314    7.9149 C.3     1  UNL1        0.0939
     18 C          58.3244   89.0122   12.7811 C.3     1  UNL1        0.4524
     19 F          56.9759   89.1174   13.4296 F       1  UNL1       -0.1632
     20 F          57.9805   90.1609   11.8798 F       1  UNL1       -0.1632
     21 F          58.6682   87.8636   13.6823 F       1  UNL1       -0.1632
     22 C          63.5527   90.4176   15.2292 C.2     1  UNL1        0.2406
     23 O          63.4405   91.4691   16.2930 O.2     1  UNL1       -0.2733
     24 N          63.3440   88.9734   15.5771 N.am    1  UNL1       -0.3027
     25 H          63.4177   88.2832   14.8789 H       1  UNL1        0.1495
     26 C          63.0232   88.5809   16.9888 C.3     1  UNL1        0.0941
     27 C          63.0039   87.1325   17.3785 C.3     1  UNL1        0.0476
     28 C          63.2598   86.0746   16.3464 C.ar    1  UNL1       -0.0204
     29 C          64.5001   86.1324   15.5047 C.ar    1  UNL1       -0.0035
     30 C          64.7560   85.0744   14.4725 C.ar    1  UNL1        0.0100
     31 C          63.7716   83.9587   14.2820 C.ar    1  UNL1        0.0684
     32 C          62.5313   83.9010   15.1238 C.ar    1  UNL1        0.0100
     33 C          62.2755   84.9589   16.1559 C.ar    1  UNL1       -0.0035
     34 C          64.0275   82.9008   13.2499 C.1     1  UNL1        0.1004
     35 N          64.2833   81.8429   12.2178 N.1     1  UNL1       -0.1908
@<TRIPOS>BOND
     1    11    12    1
     2    12    13    1
     3    13    14    1
     4    14    15    1
     5    15     5    1
     6     5     6   ar
     7     6     7   ar
     8     7     1    1
     9     1     2    1
    10     2     3    1
    11     3     4    1
    12     4    22    1
    13    22    23    2
    14    22    24   am
    15    24    26    1
    16    26    27    1
    17    27    28    1
    18    28    29   ar
    19    29    30   ar
    20    30    31   ar
    21    31    34    1
    22    34    35    3
    23    31    32   ar
    24    32    33   ar
    25     7     8   ar
    26     8     9   ar
    27     9    18    1
    28    18    19    1
    29    18    20    1
    30    18    21    1
    31     9    10   ar
    32    15    16    1
    33    16    17    1
    34    17    12    1
    35    10     5   ar
    36     4     1    1
    37    33    28   ar
    38    24    25    1
