@<TRIPOS>MOLECULE
*****
 14 15 0 0 0
SMALL
GASTEIGER

@<TRIPOS>ATOM
      1 C          63.9382   90.0051   15.2386 C.3     1  UNL1        0.0381
      2 C          64.1343   90.6513   13.8992 C.ar    1  UNL1        0.0070
      3 C          65.2139   91.6293   13.5417 C.ar    1  UNL1       -0.0000
      4 C          65.0321   92.0153   12.1037 C.ar    1  UNL1        0.0019
      5 C          63.8401   91.2759   11.5724 C.ar    1  UNL1        0.0052
      6 C          63.2981   91.3639   10.1765 C.3     1  UNL1        0.0379
      7 S          63.2852   90.4328   12.6820 S.2     1  UNL1       -0.0959
      8 C          65.8915   92.9728   11.3323 C.3     1  UNL1        0.1175
      9 C          66.8926   92.4529   10.3438 C.2     1  UNL1        0.0182
     10 C          67.7519   93.4103    9.5725 C.2     1  UNL1        0.0978
     11 N          67.6100   94.8877    9.7898 N.2     1  UNL1       -0.2268
     12 C          66.6088   95.4076   10.7784 C.2     1  UNL1        0.1606
     13 N          65.7496   94.4502   11.5496 N.pl3   1  UNL1       -0.3104
     14 H          65.0924   94.7914   12.1984 H       1  UNL1        0.1488
@<TRIPOS>BOND
     1     1     2    1
     2     2     3   ar
     3     3     4   ar
     4     4     8    1
     5     8     9    1
     6     9    10    2
     7    10    11    1
     8    11    12    2
     9    12    13    1
    10     4     5   ar
    11     5     6    1
    12     5     7   ar
    13     7     2   ar
    14    13     8    1
    15    13    14    1
@<TRIPOS>MOLECULE
*****
 14 15 0 0 0
SMALL
GASTEIGER

@<TRIPOS>ATOM
      1 C          61.9127   89.9570   11.6268 C.3     1  UNL1        0.0381
      2 C          63.1534   90.7886   11.7647 C.ar    1  UNL1        0.0070
      3 C          63.8284   91.5541   10.6656 C.ar    1  UNL1       -0.0000
      4 C          65.0292   92.2393   11.2477 C.ar    1  UNL1        0.0019
      5 C          65.0962   91.8972   12.7066 C.ar    1  UNL1        0.0052
      6 C          66.1393   92.3689   13.6758 C.3     1  UNL1        0.0379
      7 S          63.9369   91.0006   13.0262 S.2     1  UNL1       -0.0959
      8 C          65.9936   93.1132   10.5017 C.3     1  UNL1        0.1175
      9 C          67.3178   92.5633   10.0614 C.2     1  UNL1        0.0182
     10 C          68.2821   93.4372    9.3155 C.2     1  UNL1        0.0978
     11 N          67.9222   94.8610    9.0099 N.2     1  UNL1       -0.2268
     12 C          66.5979   95.4108    9.4502 C.2     1  UNL1        0.1606
     13 N          65.6336   94.5370   10.1961 N.pl3   1  UNL1       -0.3104
     14 H          64.7644   94.8979   10.4852 H       1  UNL1        0.1488
@<TRIPOS>BOND
     1     1     2    1
     2     2     3   ar
     3     3     4   ar
     4     4     8    1
     5     8     9    1
     6     9    10    2
     7    10    11    1
     8    11    12    2
     9    12    13    1
    10     4     5   ar
    11     5     6    1
    12     5     7   ar
    13     7     2   ar
    14    13     8    1
    15    13    14    1
@<TRIPOS>MOLECULE
*****
 14 15 0 0 0
SMALL
GASTEIGER

@<TRIPOS>ATOM
      1 C          62.7639   80.2532   13.5506 C.3     1  UNL1        0.0381
      2 C          62.8968   81.7212   13.2726 C.ar    1  UNL1        0.0070
      3 C          62.3497   82.4455   12.0784 C.ar    1  UNL1       -0.0000
      4 C          62.7149   83.8946   12.2078 C.ar    1  UNL1        0.0019
      5 C          63.4876   84.0660   13.4819 C.ar    1  UNL1        0.0052
      6 C          64.0493   85.3543   14.0060 C.3     1  UNL1        0.0379
      7 S          63.6001   82.7228   14.1401 S.2     1  UNL1       -0.0959
      8 C          62.3681   84.9816   11.2339 C.3     1  UNL1        0.1175
      9 C          62.9009   84.9311    9.8327 C.2     1  UNL1        0.0182
     10 C          62.5542   86.0181    8.8589 C.2     1  UNL1        0.0978
     11 N          61.6745   87.1554    9.2863 N.2     1  UNL1       -0.2268
     12 C          61.1417   87.2058   10.6875 C.2     1  UNL1        0.1606
     13 N          61.4885   86.1189   11.6613 N.pl3   1  UNL1       -0.3104
     14 H          61.1387   86.1520   12.5810 H       1  UNL1        0.1488
@<TRIPOS>BOND
     1     1     2    1
     2     2     3   ar
     3     3     4   ar
     4     4     8    1
     5     8     9    1
     6     9    10    2
     7    10    11    1
     8    11    12    2
     9    12    13    1
    10     4     5   ar
    11     5     6    1
    12     5     7   ar
    13     7     2   ar
    14    13     8    1
    15    13    14    1
@<TRIPOS>MOLECULE
*****
 14 15 0 0 0
SMALL
GASTEIGER

@<TRIPOS>ATOM
      1 C          66.1471   93.3582   10.4656 C.3     1  UNL1        0.0381
      2 C          65.2381   92.4363   11.2232 C.ar    1  UNL1        0.0070
      3 C          64.1029   91.6451   10.6440 C.ar    1  UNL1       -0.0000
      4 C          63.4680   90.8635   11.7558 C.ar    1  UNL1        0.0019
      5 C          64.2108   91.1715   13.0220 C.ar    1  UNL1        0.0052
      6 C          63.9121   90.6067   14.3791 C.3     1  UNL1        0.0379
      7 S          65.3048   92.1435   12.6929 S.2     1  UNL1       -0.0959
      8 C          62.2960   89.9365   11.6243 C.3     1  UNL1        0.1175
      9 C          62.4994   88.5362   11.1267 C.2     1  UNL1        0.0182
     10 C          61.3275   87.6093   10.9952 C.2     1  UNL1        0.0978
     11 N          59.9521   88.0827   11.3614 N.2     1  UNL1       -0.2268
     12 C          59.7486   89.4830   11.8591 C.2     1  UNL1        0.1606
     13 N          60.9206   90.4099   11.9905 N.pl3   1  UNL1       -0.3104
     14 H          60.7871   91.3290   12.3171 H       1  UNL1        0.1488
@<TRIPOS>BOND
     1     1     2    1
     2     2     3   ar
     3     3     4   ar
     4     4     8    1
     5     8     9    1
     6     9    10    2
     7    10    11    1
     8    11    12    2
     9    12    13    1
    10     4     5   ar
    11     5     6    1
    12     5     7   ar
    13     7     2   ar
    14    13     8    1
    15    13    14    1
@<TRIPOS>MOLECULE
*****
 14 15 0 0 0
SMALL
GASTEIGER

@<TRIPOS>ATOM
      1 C          60.9788   87.4472    8.9899 C.3     1  UNL1        0.0381
      2 C          61.7410   86.3502    9.6722 C.ar    1  UNL1        0.0070
      3 C          61.7064   86.0321   11.1377 C.ar    1  UNL1       -0.0000
      4 C          62.6157   84.8640   11.3801 C.ar    1  UNL1        0.0019
      5 C          63.2123   84.4602   10.0644 C.ar    1  UNL1        0.0052
      6 C          64.1796   83.3353    9.8431 C.3     1  UNL1        0.0379
      7 S          62.6717   85.3787    9.0089 S.2     1  UNL1       -0.0959
      8 C          62.8817   84.2139   12.7055 C.3     1  UNL1        0.1175
      9 C          63.6009   84.9718   13.7817 C.2     1  UNL1        0.0182
     10 C          63.8668   84.3216   15.1070 C.2     1  UNL1        0.0978
     11 N          63.4135   82.9136   15.3562 N.2     1  UNL1       -0.2268
     12 C          62.6943   82.1558   14.2800 C.2     1  UNL1        0.1606
     13 N          62.4284   82.8059   12.9546 N.pl3   1  UNL1       -0.3104
     14 H          61.9563   82.3085   12.2482 H       1  UNL1        0.1488
@<TRIPOS>BOND
     1     1     2    1
     2     2     3   ar
     3     3     4   ar
     4     4     8    1
     5     8     9    1
     6     9    10    2
     7    10    11    1
     8    11    12    2
     9    12    13    1
    10     4     5   ar
    11     5     6    1
    12     5     7   ar
    13     7     2   ar
    14    13     8    1
    15    13    14    1
@<TRIPOS>MOLECULE
*****
 14 15 0 0 0
SMALL
GASTEIGER

@<TRIPOS>ATOM
      1 C          59.2764   88.0404    7.6503 C.3     1  UNL1        0.0381
      2 C          60.2528   87.7370    8.7479 C.ar    1  UNL1        0.0070
      3 C          60.7125   86.3720    9.1665 C.ar    1  UNL1       -0.0000
      4 C          61.6847   86.5367   10.2969 C.ar    1  UNL1        0.0019
      5 C          61.8258   88.0035   10.5769 C.ar    1  UNL1        0.0052
      6 C          62.6986   88.6203   11.6294 C.3     1  UNL1        0.0379
      7 S          60.9408   88.7454    9.6196 S.2     1  UNL1       -0.0959
      8 C          62.3917   85.4290   11.0203 C.3     1  UNL1        0.1175
      9 C          63.2063   84.4312   10.2516 C.2     1  UNL1        0.0182
     10 C          63.9132   83.3236   10.9750 C.2     1  UNL1        0.0978
     11 N          63.8055   83.2137   12.4671 N.2     1  UNL1       -0.2268
     12 C          62.9910   84.2115   13.2358 C.2     1  UNL1        0.1606
     13 N          62.2841   85.3191   12.5124 N.pl3   1  UNL1       -0.3104
     14 H          61.7494   85.9740   13.0169 H       1  UNL1        0.1488
@<TRIPOS>BOND
     1     1     2    1
     2     2     3   ar
     3     3     4   ar
     4     4     8    1
     5     8     9    1
     6     9    10    2
     7    10    11    1
     8    11    12    2
     9    12    13    1
    10     4     5   ar
    11     5     6    1
    12     5     7   ar
    13     7     2   ar
    14    13     8    1
    15    13    14    1
@<TRIPOS>MOLECULE
*****
 14 15 0 0 0
SMALL
GASTEIGER

@<TRIPOS>ATOM
      1 C          61.7252   80.1807   13.8128 C.3     1  UNL1        0.0381
      2 C          62.3188   81.4232   13.2181 C.ar    1  UNL1        0.0070
      3 C          62.3996   82.7663   13.8812 C.ar    1  UNL1       -0.0000
      4 C          63.0666   83.7140   12.9289 C.ar    1  UNL1        0.0019
      5 C          63.3981   82.9567   11.6773 C.ar    1  UNL1        0.0052
      6 C          64.0733   83.5168   10.4605 C.3     1  UNL1        0.0379
      7 S          62.9360   81.5409   11.8560 S.2     1  UNL1       -0.0959
      8 C          63.3521   85.1645   13.1835 C.3     1  UNL1        0.1175
      9 C          64.1393   85.5728   14.3932 C.2     1  UNL1        0.0182
     10 C          64.4247   87.0232   14.6478 C.2     1  UNL1        0.0978
     11 N          63.9228   88.0653   13.6927 N.2     1  UNL1       -0.2268
     12 C          63.1356   87.6569   12.4830 C.2     1  UNL1        0.1606
     13 N          62.8502   86.2066   12.2284 N.pl3   1  UNL1       -0.3104
     14 H          62.3334   85.9385   11.4344 H       1  UNL1        0.1488
@<TRIPOS>BOND
     1     1     2    1
     2     2     3   ar
     3     3     4   ar
     4     4     8    1
     5     8     9    1
     6     9    10    2
     7    10    11    1
     8    11    12    2
     9    12    13    1
    10     4     5   ar
    11     5     6    1
    12     5     7   ar
    13     7     2   ar
    14    13     8    1
    15    13    14    1
@<TRIPOS>MOLECULE
*****
 14 15 0 0 0
SMALL
GASTEIGER

@<TRIPOS>ATOM
      1 C          63.8025   82.7591   12.7040 C.3     1  UNL1        0.0381
      2 C          63.3347   83.8362   11.7707 C.ar    1  UNL1        0.0070
      3 C          62.6575   85.1143   12.1681 C.ar    1  UNL1       -0.0000
      4 C          62.3662   85.8923   10.9192 C.ar    1  UNL1        0.0019
      5 C          62.8634   85.0951    9.7499 C.ar    1  UNL1        0.0052
      6 C          62.7771   85.4979    8.3076 C.3     1  UNL1        0.0379
      7 S          63.4619   83.8244   10.2761 S.2     1  UNL1       -0.0959
      8 C          61.6955   87.2324   10.8515 C.3     1  UNL1        0.1175
      9 C          62.3591   88.3676   10.1298 C.2     1  UNL1        0.0182
     10 C          61.6884   89.7076   10.0622 C.2     1  UNL1        0.0978
     11 N          60.3541   89.9123   10.7162 N.2     1  UNL1       -0.2268
     12 C          59.6905   88.7771   11.4379 C.2     1  UNL1        0.1606
     13 N          60.3612   87.4371   11.5056 N.pl3   1  UNL1       -0.3104
     14 H          59.9257   86.6920   11.9793 H       1  UNL1        0.1488
@<TRIPOS>BOND
     1     1     2    1
     2     2     3   ar
     3     3     4   ar
     4     4     8    1
     5     8     9    1
     6     9    10    2
     7    10    11    1
     8    11    12    2
     9    12    13    1
    10     4     5   ar
    11     5     6    1
    12     5     7   ar
    13     7     2   ar
    14    13     8    1
    15    13    14    1
@<TRIPOS>MOLECULE
*****
 14 15 0 0 0
SMALL
GASTEIGER

@<TRIPOS>ATOM
      1 C          63.6020   90.1117   14.9235 C.3     1  UNL1        0.0381
      2 C          64.6380   91.1004   14.4771 C.ar    1  UNL1        0.0070
      3 C          64.8751   91.5528   13.0667 C.ar    1  UNL1       -0.0000
      4 C          66.0024   92.5422   13.0806 C.ar    1  UNL1        0.0019
      5 C          66.4620   92.7013   14.4995 C.ar    1  UNL1        0.0052
      6 C          67.5703   93.5947   14.9724 C.3     1  UNL1        0.0379
      7 S          65.6188   91.8102   15.3626 S.2     1  UNL1       -0.0959
      8 C          66.5704   93.2486   11.8853 C.3     1  UNL1        0.1175
      9 C          66.2437   94.6922   11.6420 C.2     1  UNL1        0.0182
     10 C          66.8116   95.3984   10.4467 C.2     1  UNL1        0.0978
     11 N          67.7063   94.6611    9.4949 N.2     1  UNL1       -0.2268
     12 C          68.0329   93.2175    9.7383 C.2     1  UNL1        0.1606
     13 N          67.4650   92.5112   10.9335 N.pl3   1  UNL1       -0.3104
     14 H          67.6794   91.5637   11.0933 H       1  UNL1        0.1488
@<TRIPOS>BOND
     1     1     2    1
     2     2     3   ar
     3     3     4   ar
     4     4     8    1
     5     8     9    1
     6     9    10    2
     7    10    11    1
     8    11    12    2
     9    12    13    1
    10     4     5   ar
    11     5     6    1
    12     5     7   ar
    13     7     2   ar
    14    13     8    1
    15    13    14    1
