@<TRIPOS>MOLECULE
*****
 41 46 0 0 0
SMALL
GASTEIGER

@<TRIPOS>ATOM
      1 C          58.7045   86.7563    8.4684 C.3     1  UNL1        0.0312
      2 C          59.5784   87.9528    8.2345 C.2     1  UNL1        0.0136
      3 C          59.3781   88.8007    7.0134 C.2     1  UNL1        0.0107
      4 C          60.2519   89.9971    6.7795 C.2     1  UNL1        0.0509
      5 C          61.3262   90.3459    7.7668 C.2     1  UNL1        0.0613
      6 C          61.5264   89.4980    8.9878 C.2     1  UNL1        0.2246
      7 N          62.4963   89.5937   10.1281 N.2     1  UNL1       -0.0378
      8 C          62.2218   88.4563   11.0667 C.2     1  UNL1        0.3605
      9 N          61.0823   87.6577   10.5065 N.2     1  UNL1       -0.0547
     10 C          60.6525   88.3015    9.2217 C.3     1  UNL1        0.2976
     11 C          62.9576   88.1681   12.3416 C.3     1  UNL1        0.2246
     12 C          63.4607   89.2987   13.1893 C.2     1  UNL1        0.0436
     13 C          64.1965   89.0104   14.4643 C.2     1  UNL1        0.0288
     14 C          64.4293   87.5916   14.8916 C.2     1  UNL1        0.0896
     15 N          63.9262   86.4609   14.0439 N.am    1  UNL1       -0.1770
     16 C          63.1904   86.7492   12.7690 C.2     1  UNL1        0.2627
     17 O          62.6873   85.6186   11.9213 O.2     1  UNL1       -0.2719
     18 N          63.2280   90.7176   12.7620 N.pl3   1  UNL1       -0.3329
     19 H          62.4545   91.2164   13.1115 H       1  UNL1        0.1466
     20 C          64.1739   91.3767   11.8024 C.3     1  UNL1        0.1211
     21 C          65.2058   92.3402   12.3090 C.3     1  UNL1        0.1522
     22 O          65.3729   92.5532   13.7844 O.3     1  UNL1       -0.3783
     23 H          64.7412   91.9957   14.2651 H       1  UNL1        0.2109
     24 C          66.0707   93.0908   11.3402 C.ar    1  UNL1        0.0067
     25 C          65.9645   94.5837   11.2407 C.ar    1  UNL1       -0.0018
     26 C          66.8294   95.3343   10.2719 C.ar    1  UNL1        0.0006
     27 C          67.8005   94.5920    9.4025 C.ar    1  UNL1        0.0114
     28 C          67.9067   93.0991    9.5020 C.ar    1  UNL1        0.0574
     29 CL         68.8779   92.3568    8.6326 Cl      1  UNL1       -0.0823
     30 C          67.0418   92.3485   10.4708 C.ar    1  UNL1        0.0095
     31 N          60.0516   90.8450    5.5584 N.pl3   1  UNL1       -0.3073
     32 C          58.6768   91.3208    5.1930 C.3     1  UNL1        0.0922
     33 C          58.4765   92.1687    3.9719 C.3     1  UNL1        0.0374
     34 C          59.6510   92.5407    3.1163 C.3     1  UNL1        0.0609
     35 C          61.0258   92.0649    3.4817 C.3     1  UNL1        0.0374
     36 C          61.2261   91.2170    4.7027 C.3     1  UNL1        0.0922
     37 N          59.4507   93.3885    1.8952 N.3     1  UNL1       -0.2738
     38 C          60.0103   94.7626    1.6744 C.3     1  UNL1        0.0721
     39 C          59.5611   95.2344    0.3232 C.3     1  UNL1        0.0188
     40 C          58.7240   94.1519   -0.2911 C.3     1  UNL1        0.0188
     41 C          58.6558   93.0110    0.6805 C.3     1  UNL1        0.0721
@<TRIPOS>BOND
     1     1     2    1
     2     2     3    2
     3     3     4    1
     4     4    31    1
     5    31    32    1
     6    32    33    1
     7    33    34    1
     8    34    37    1
     9    37    38    1
    10    38    39    1
    11    39    40    1
    12    40    41    1
    13    34    35    1
    14    35    36    1
    15     4     5    2
    16     5     6    1
    17     6     7    2
    18     7     8    1
    19     8    11    1
    20    11    12    1
    21    12    18    1
    22    18    20    1
    23    20    21    1
    24    21    22    1
    25    21    24    1
    26    24    25   ar
    27    25    26   ar
    28    26    27   ar
    29    27    28   ar
    30    28    29    1
    31    28    30   ar
    32    12    13    2
    33    13    14    1
    34    14    15    2
    35    15    16    1
    36    16    17    2
    37     8     9    2
    38     9    10    1
    39    10     2    1
    40    36    31    1
    41    10     6    1
    42    41    37    1
    43    16    11    1
    44    30    24   ar
    45    18    19    1
    46    22    23    1
@<TRIPOS>MOLECULE
*****
 41 46 0 0 0
SMALL
GASTEIGER

@<TRIPOS>ATOM
      1 C          61.7435   88.8980   10.4831 C.3     1  UNL1        0.0312
      2 C          62.4541   87.9387   11.3912 C.2     1  UNL1        0.0136
      3 C          62.3996   86.4651   11.1162 C.2     1  UNL1        0.0107
      4 C          63.1102   85.5059   12.0243 C.2     1  UNL1        0.0509
      5 C          63.8753   86.0200   13.2076 C.2     1  UNL1        0.0613
      6 C          63.9299   87.4936   13.4827 C.2     1  UNL1        0.2246
      7 N          64.5995   88.2886   14.5641 N.2     1  UNL1       -0.0378
      8 C          64.3028   89.7392   14.3243 C.2     1  UNL1        0.3605
      9 N          63.4498   89.8408   13.0947 N.2     1  UNL1       -0.0547
     10 C          63.2193   88.4529   12.5745 C.3     1  UNL1        0.2976
     11 C          64.7760   90.8869   15.1663 C.3     1  UNL1        0.2246
     12 C          66.0229   91.6302   14.7885 C.2     1  UNL1        0.0436
     13 C          66.4961   92.7778   15.6306 C.2     1  UNL1        0.0288
     14 C          65.7224   93.1822   16.8504 C.2     1  UNL1        0.0896
     15 N          64.4755   92.4389   17.2282 N.am    1  UNL1       -0.1770
     16 C          64.0024   91.2912   16.3861 C.2     1  UNL1        0.2627
     17 O          62.7555   90.5480   16.7639 O.2     1  UNL1       -0.2719
     18 N          66.7967   91.2259   13.5688 N.pl3   1  UNL1       -0.3329
     19 H          67.0780   90.2897   13.4522 H       1  UNL1        0.1466
     20 C          67.1418   92.2479   12.5265 C.3     1  UNL1        0.1211
     21 C          66.0605   92.8477   11.6773 C.3     1  UNL1        0.1522
     22 O          64.7689   92.1117   11.4773 O.3     1  UNL1       -0.3783
     23 H          64.7970   91.2718   11.9616 H       1  UNL1        0.2109
     24 C          66.2709   94.1835   11.0282 C.ar    1  UNL1        0.0067
     25 C          66.0490   95.4422   11.8133 C.ar    1  UNL1       -0.0018
     26 C          66.2594   96.7780   11.1641 C.ar    1  UNL1        0.0006
     27 C          66.6917   96.8551    9.7298 C.ar    1  UNL1        0.0114
     28 C          66.9136   95.5964    8.9448 C.ar    1  UNL1        0.0574
     29 CL         67.3459   95.6735    7.5105 Cl      1  UNL1       -0.0823
     30 C          66.7032   94.2606    9.5939 C.ar    1  UNL1        0.0095
     31 N          63.0556   84.0322   11.7491 N.pl3   1  UNL1       -0.3073
     32 C          62.3435   83.1174   12.7010 C.3     1  UNL1        0.0922
     33 C          62.2889   81.6439   12.4259 C.3     1  UNL1        0.0374
     34 C          62.9465   81.0852   11.1989 C.3     1  UNL1        0.0609
     35 C          63.6586   82.0000   10.2471 C.3     1  UNL1        0.0374
     36 C          63.7132   83.4735   10.5222 C.3     1  UNL1        0.0922
     37 N          62.8920   79.6117   10.9238 N.3     1  UNL1       -0.2738
     38 C          63.0942   78.9557    9.5900 C.3     1  UNL1        0.0721
     39 C          62.9529   77.4739    9.7760 C.3     1  UNL1        0.0188
     40 C          62.6634   77.2142   11.2247 C.3     1  UNL1        0.0188
     41 C          62.6257   78.5354   11.9341 C.3     1  UNL1        0.0721
@<TRIPOS>BOND
     1     1     2    1
     2     2     3    2
     3     3     4    1
     4     4    31    1
     5    31    32    1
     6    32    33    1
     7    33    34    1
     8    34    37    1
     9    37    38    1
    10    38    39    1
    11    39    40    1
    12    40    41    1
    13    34    35    1
    14    35    36    1
    15     4     5    2
    16     5     6    1
    17     6     7    2
    18     7     8    1
    19     8    11    1
    20    11    12    1
    21    12    18    1
    22    18    20    1
    23    20    21    1
    24    21    22    1
    25    21    24    1
    26    24    25   ar
    27    25    26   ar
    28    26    27   ar
    29    27    28   ar
    30    28    29    1
    31    28    30   ar
    32    12    13    2
    33    13    14    1
    34    14    15    2
    35    15    16    1
    36    16    17    2
    37     8     9    2
    38     9    10    1
    39    10     2    1
    40    36    31    1
    41    10     6    1
    42    41    37    1
    43    16    11    1
    44    30    24   ar
    45    18    19    1
    46    22    23    1
@<TRIPOS>MOLECULE
*****
 41 46 0 0 0
SMALL
GASTEIGER

@<TRIPOS>ATOM
      1 C          59.8450   96.8541    1.4271 C.3     1  UNL1        0.0312
      2 C          60.1830   95.3978    1.3052 C.2     1  UNL1        0.0136
      3 C          60.0193   94.4884    2.4868 C.2     1  UNL1        0.0107
      4 C          60.3573   93.0322    2.3649 C.2     1  UNL1        0.0509
      5 C          60.8590   92.4851    1.0614 C.2     1  UNL1        0.0613
      6 C          61.0227   93.3945   -0.1202 C.2     1  UNL1        0.2246
      7 N          61.4925   93.1434   -1.5224 N.2     1  UNL1       -0.0378
      8 C          61.4449   94.4446   -2.2672 C.2     1  UNL1        0.3605
      9 N          60.9456   95.4998   -1.3252 N.2     1  UNL1       -0.0547
     10 C          60.6847   94.8508    0.0017 C.3     1  UNL1        0.2976
     11 C          61.8291   94.6538   -3.7020 C.3     1  UNL1        0.2246
     12 C          61.1161   95.6841   -4.5267 C.2     1  UNL1        0.0436
     13 C          61.5004   95.8933   -5.9615 C.2     1  UNL1        0.0288
     14 C          62.5975   95.0723   -6.5716 C.2     1  UNL1        0.0896
     15 N          63.3104   94.0420   -5.7468 N.am    1  UNL1       -0.1770
     16 C          62.9262   93.8328   -4.3120 C.2     1  UNL1        0.2627
     17 O          63.6391   92.8025   -3.4873 O.2     1  UNL1       -0.2719
     18 N          60.0190   96.5052   -3.9167 N.pl3   1  UNL1       -0.3329
     19 H          60.2370   97.2177   -3.2732 H       1  UNL1        0.1466
     20 C          58.5897   96.2408   -4.2871 C.3     1  UNL1        0.1211
     21 C          58.1511   94.8503   -4.6393 C.3     1  UNL1        0.1522
     22 O          58.2524   94.3681   -6.0561 O.3     1  UNL1       -0.3783
     23 H          58.6186   95.0734   -6.6122 H       1  UNL1        0.2109
     24 C          57.6113   93.9419   -3.5746 C.ar    1  UNL1        0.0067
     25 C          57.7713   94.3040   -2.1278 C.ar    1  UNL1       -0.0018
     26 C          57.2315   93.3956   -1.0632 C.ar    1  UNL1        0.0006
     27 C          56.5316   92.1251   -1.4454 C.ar    1  UNL1        0.0114
     28 C          56.3716   91.7631   -2.8922 C.ar    1  UNL1        0.0574
     29 CL         55.6717   90.4926   -3.2743 Cl      1  UNL1       -0.0823
     30 C          56.9114   92.6714   -3.9568 C.ar    1  UNL1        0.0095
     31 N          60.1936   92.1227    3.5466 N.pl3   1  UNL1       -0.3073
     32 C          58.8500   91.9715    4.1961 C.3     1  UNL1        0.0922
     33 C          58.6863   91.0621    5.3778 C.3     1  UNL1        0.0374
     34 C          59.8661   90.3040    5.9099 C.3     1  UNL1        0.0609
     35 C          61.2097   90.4553    5.2603 C.3     1  UNL1        0.0374
     36 C          61.3735   91.3646    4.0787 C.3     1  UNL1        0.0922
     37 N          59.7025   89.3947    7.0915 N.3     1  UNL1       -0.2738
     38 C          60.1821   89.6666    8.4865 C.3     1  UNL1        0.0721
     39 C          59.8065   88.4936    9.3427 C.3     1  UNL1        0.0188
     40 C          59.0949   87.4968    8.4768 C.3     1  UNL1        0.0188
     41 C          59.0306   88.0536    7.0855 C.3     1  UNL1        0.0721
@<TRIPOS>BOND
     1     1     2    1
     2     2     3    2
     3     3     4    1
     4     4    31    1
     5    31    32    1
     6    32    33    1
     7    33    34    1
     8    34    37    1
     9    37    38    1
    10    38    39    1
    11    39    40    1
    12    40    41    1
    13    34    35    1
    14    35    36    1
    15     4     5    2
    16     5     6    1
    17     6     7    2
    18     7     8    1
    19     8    11    1
    20    11    12    1
    21    12    18    1
    22    18    20    1
    23    20    21    1
    24    21    22    1
    25    21    24    1
    26    24    25   ar
    27    25    26   ar
    28    26    27   ar
    29    27    28   ar
    30    28    29    1
    31    28    30   ar
    32    12    13    2
    33    13    14    1
    34    14    15    2
    35    15    16    1
    36    16    17    2
    37     8     9    2
    38     9    10    1
    39    10     2    1
    40    36    31    1
    41    10     6    1
    42    41    37    1
    43    16    11    1
    44    30    24   ar
    45    18    19    1
    46    22    23    1
@<TRIPOS>MOLECULE
*****
 41 46 0 0 0
SMALL
GASTEIGER

@<TRIPOS>ATOM
      1 C          58.4547   86.4728    8.2195 C.3     1  UNL1        0.0312
      2 C          59.4066   87.6233    8.0770 C.2     1  UNL1        0.0136
      3 C          59.2599   88.5808    6.9318 C.2     1  UNL1        0.0107
      4 C          60.2117   89.7312    6.7893 C.2     1  UNL1        0.0509
      5 C          61.3105   89.9242    7.7921 C.2     1  UNL1        0.0613
      6 C          61.4572   88.9667    8.9374 C.2     1  UNL1        0.2246
      7 N          62.4353   88.9025   10.0728 N.2     1  UNL1       -0.0378
      8 C          62.0879   87.7123   10.9170 C.2     1  UNL1        0.3605
      9 N          60.8951   87.0410   10.3034 N.2     1  UNL1       -0.0547
     10 C          60.5053   87.8163    9.0798 C.3     1  UNL1        0.2976
     11 C          62.8070   87.2709   12.1572 C.3     1  UNL1        0.2246
     12 C          63.5358   88.2757   12.9993 C.2     1  UNL1        0.0436
     13 C          64.2549   87.8342   14.2396 C.2     1  UNL1        0.0288
     14 C          64.2451   86.3881   14.6377 C.2     1  UNL1        0.0896
     15 N          63.5162   85.3833   13.7955 N.am    1  UNL1       -0.1770
     16 C          62.7972   85.8248   12.5553 C.2     1  UNL1        0.2627
     17 O          62.0683   84.8200   11.7132 O.2     1  UNL1       -0.2719
     18 N          63.5457   89.7219   12.6013 N.pl3   1  UNL1       -0.3329
     19 H          63.8148   89.9798   11.6901 H       1  UNL1        0.1466
     20 C          63.1455   90.7751   13.5915 C.3     1  UNL1        0.1211
     21 C          63.8790   90.8972   14.8942 C.3     1  UNL1        0.1522
     22 O          63.2350   90.4263   16.1645 O.3     1  UNL1       -0.3783
     23 H          62.3531   90.0732   15.9684 H       1  UNL1        0.2109
     24 C          65.2564   91.4901   14.9266 C.ar    1  UNL1        0.0067
     25 C          65.6985   92.2958   16.1121 C.ar    1  UNL1       -0.0018
     26 C          67.0759   92.8887   16.1445 C.ar    1  UNL1        0.0006
     27 C          68.0114   92.6759   14.9914 C.ar    1  UNL1        0.0114
     28 C          67.5694   91.8701   13.8060 C.ar    1  UNL1        0.0574
     29 CL         68.5049   91.6572   12.6529 Cl      1  UNL1       -0.0823
     30 C          66.1919   91.2772   13.7736 C.ar    1  UNL1        0.0095
     31 N          60.0649   90.6887    5.6439 N.pl3   1  UNL1       -0.3073
     32 C          61.2606   91.0573    4.8166 C.3     1  UNL1        0.0922
     33 C          61.1138   92.0148    3.6713 C.3     1  UNL1        0.0374
     34 C          59.7713   92.6036    3.3534 C.3     1  UNL1        0.0609
     35 C          58.5757   92.2350    4.1807 C.3     1  UNL1        0.0374
     36 C          58.7224   91.2775    5.3260 C.3     1  UNL1        0.0922
     37 N          59.6244   93.5611    2.2081 N.3     1  UNL1       -0.2738
     38 C          58.9667   93.2677    0.8923 C.3     1  UNL1        0.0721
     39 C          59.0453   94.5054    0.0486 C.3     1  UNL1        0.0188
     40 C          59.7516   95.5638    0.8429 C.3     1  UNL1        0.0188
     41 C          60.1095   94.9802    2.1776 C.3     1  UNL1        0.0721
@<TRIPOS>BOND
     1     1     2    1
     2     2     3    2
     3     3     4    1
     4     4    31    1
     5    31    32    1
     6    32    33    1
     7    33    34    1
     8    34    37    1
     9    37    38    1
    10    38    39    1
    11    39    40    1
    12    40    41    1
    13    34    35    1
    14    35    36    1
    15     4     5    2
    16     5     6    1
    17     6     7    2
    18     7     8    1
    19     8    11    1
    20    11    12    1
    21    12    18    1
    22    18    20    1
    23    20    21    1
    24    21    22    1
    25    21    24    1
    26    24    25   ar
    27    25    26   ar
    28    26    27   ar
    29    27    28   ar
    30    28    29    1
    31    28    30   ar
    32    12    13    2
    33    13    14    1
    34    14    15    2
    35    15    16    1
    36    16    17    2
    37     8     9    2
    38     9    10    1
    39    10     2    1
    40    36    31    1
    41    10     6    1
    42    41    37    1
    43    16    11    1
    44    30    24   ar
    45    18    19    1
    46    22    23    1
@<TRIPOS>MOLECULE
*****
 41 46 0 0 0
SMALL
GASTEIGER

@<TRIPOS>ATOM
      1 C          61.8581   88.8961   10.4247 C.3     1  UNL1        0.0312
      2 C          62.5230   87.9312   11.3613 C.2     1  UNL1        0.0136
      3 C          62.4693   86.4583   11.0831 C.2     1  UNL1        0.0107
      4 C          63.1341   85.4935   12.0196 C.2     1  UNL1        0.0509
      5 C          63.8527   86.0016   13.2343 C.2     1  UNL1        0.0613
      6 C          63.9064   87.4746   13.5125 C.2     1  UNL1        0.2246
      7 N          64.5358   88.2643   14.6216 N.2     1  UNL1       -0.0378
      8 C          64.2600   89.7172   14.3705 C.2     1  UNL1        0.3605
      9 N          63.4601   89.8254   13.1063 N.2     1  UNL1       -0.0547
     10 C          63.2415   88.4394   12.5759 C.3     1  UNL1        0.2976
     11 C          64.7058   90.8610   15.2324 C.3     1  UNL1        0.2246
     12 C          65.9447   91.6288   14.8779 C.2     1  UNL1        0.0436
     13 C          66.3905   92.7727   15.7399 C.2     1  UNL1        0.0288
     14 C          65.5974   93.1487   16.9563 C.2     1  UNL1        0.0896
     15 N          64.3585   92.3810   17.3108 N.am    1  UNL1       -0.1770
     16 C          63.9128   91.2371   16.4488 C.2     1  UNL1        0.2627
     17 O          62.6739   90.4693   16.8033 O.2     1  UNL1       -0.2719
     18 N          66.7378   91.2528   13.6616 N.pl3   1  UNL1       -0.3329
     19 H          67.0246   90.3203   13.5299 H       1  UNL1        0.1466
     20 C          67.0939   92.2975   12.6459 C.3     1  UNL1        0.1211
     21 C          66.1443   92.6111   11.5279 C.3     1  UNL1        0.1522
     22 O          64.7314   92.1105   11.5814 O.3     1  UNL1       -0.3783
     23 H          64.5979   91.6056   12.3988 H       1  UNL1        0.2109
     24 C          66.6077   93.4253   10.3564 C.ar    1  UNL1        0.0067
     25 C          67.7350   92.9317    9.4989 C.ar    1  UNL1       -0.0018
     26 C          68.1984   93.7459    8.3274 C.ar    1  UNL1        0.0006
     27 C          67.5344   95.0538    8.0135 C.ar    1  UNL1        0.0114
     28 C          66.4071   95.5474    8.8710 C.ar    1  UNL1        0.0574
     29 CL         65.7431   96.8553    8.5571 Cl      1  UNL1       -0.0823
     30 C          65.9437   94.7332   10.0425 C.ar    1  UNL1        0.0095
     31 N          63.0805   84.0204   11.7414 N.pl3   1  UNL1       -0.3073
     32 C          63.7331   83.4654   10.5101 C.3     1  UNL1        0.0922
     33 C          63.6795   81.9924   10.2319 C.3     1  UNL1        0.0374
     34 C          62.9732   81.0744   11.1851 C.3     1  UNL1        0.0609
     35 C          62.3205   81.6294   12.4163 C.3     1  UNL1        0.0374
     36 C          62.3742   83.1024   12.6945 C.3     1  UNL1        0.0922
     37 N          62.9195   79.6014   10.9070 N.3     1  UNL1       -0.2738
     38 C          62.6903   78.5204   11.9213 C.3     1  UNL1        0.0721
     39 C          62.7147   77.2017   11.2069 C.3     1  UNL1        0.0188
     40 C          62.9589   77.4677    9.7510 C.3     1  UNL1        0.0188
     41 C          63.0855   78.9508    9.5657 C.3     1  UNL1        0.0721
@<TRIPOS>BOND
     1     1     2    1
     2     2     3    2
     3     3     4    1
     4     4    31    1
     5    31    32    1
     6    32    33    1
     7    33    34    1
     8    34    37    1
     9    37    38    1
    10    38    39    1
    11    39    40    1
    12    40    41    1
    13    34    35    1
    14    35    36    1
    15     4     5    2
    16     5     6    1
    17     6     7    2
    18     7     8    1
    19     8    11    1
    20    11    12    1
    21    12    18    1
    22    18    20    1
    23    20    21    1
    24    21    22    1
    25    21    24    1
    26    24    25   ar
    27    25    26   ar
    28    26    27   ar
    29    27    28   ar
    30    28    29    1
    31    28    30   ar
    32    12    13    2
    33    13    14    1
    34    14    15    2
    35    15    16    1
    36    16    17    2
    37     8     9    2
    38     9    10    1
    39    10     2    1
    40    36    31    1
    41    10     6    1
    42    41    37    1
    43    16    11    1
    44    30    24   ar
    45    18    19    1
    46    22    23    1
@<TRIPOS>MOLECULE
*****
 41 46 0 0 0
SMALL
GASTEIGER

@<TRIPOS>ATOM
      1 C          62.1553   96.4918    1.4820 C.3     1  UNL1        0.0312
      2 C          61.2355   95.3119    1.3734 C.2     1  UNL1        0.0136
      3 C          61.0997   94.3585    2.5234 C.2     1  UNL1        0.0107
      4 C          60.1799   93.1786    2.4149 C.2     1  UNL1        0.0509
      5 C          59.3959   92.9520    1.1563 C.2     1  UNL1        0.0613
      6 C          59.5318   93.9054    0.0062 C.2     1  UNL1        0.2246
      7 N          58.8916   93.9398   -1.3499 N.2     1  UNL1       -0.0378
      8 C          59.4158   95.1411   -2.0794 C.2     1  UNL1        0.3605
      9 N          60.3799   95.8490   -1.1742 N.2     1  UNL1       -0.0547
     10 C          60.4515   95.0853    0.1148 C.3     1  UNL1        0.2976
     11 C          59.0416   95.5607   -3.4701 C.3     1  UNL1        0.2246
     12 C          57.8312   96.4177   -3.6948 C.2     1  UNL1        0.0436
     13 C          57.4571   96.8373   -5.0855 C.2     1  UNL1        0.0288
     14 C          58.2933   96.4000   -6.2514 C.2     1  UNL1        0.0896
     15 N          59.5037   95.5431   -6.0267 N.am    1  UNL1       -0.1770
     16 C          59.8779   95.1234   -4.6360 C.2     1  UNL1        0.2627
     17 O          61.0883   94.2665   -4.4113 O.2     1  UNL1       -0.2719
     18 N          56.9949   96.8550   -2.5289 N.pl3   1  UNL1       -0.3329
     19 H          57.4154   97.3142   -1.7663 H       1  UNL1        0.1466
     20 C          55.5180   96.5927   -2.5249 C.3     1  UNL1        0.1211
     21 C          54.9415   95.5363   -3.4201 C.3     1  UNL1        0.1522
     22 O          53.7939   95.8668   -4.3278 O.3     1  UNL1       -0.3783
     23 H          53.5485   96.7982   -4.2127 H       1  UNL1        0.2109
     24 C          55.5126   94.1493   -3.4078 C.ar    1  UNL1        0.0067
     25 C          55.5308   93.3570   -2.1343 C.ar    1  UNL1       -0.0018
     26 C          56.1018   91.9700   -2.1219 C.ar    1  UNL1        0.0006
     27 C          56.6547   91.3752   -3.3831 C.ar    1  UNL1        0.0114
     28 C          56.6365   92.1675   -4.6566 C.ar    1  UNL1        0.0574
     29 CL         57.1893   91.5728   -5.9178 Cl      1  UNL1       -0.0823
     30 C          56.0654   93.5545   -4.6690 C.ar    1  UNL1        0.0095
     31 N          60.0441   92.2252    3.5650 N.pl3   1  UNL1       -0.3073
     32 C          61.2224   91.4078    4.0048 C.3     1  UNL1        0.0922
     33 C          61.0866   90.4544    5.1548 C.3     1  UNL1        0.0374
     34 C          59.7725   90.3184    5.8651 C.3     1  UNL1        0.0609
     35 C          58.5941   91.1358    5.4253 C.3     1  UNL1        0.0374
     36 C          58.7300   92.0892    4.2753 C.3     1  UNL1        0.0922
     37 N          59.6366   89.3651    7.0151 N.3     1  UNL1       -0.2738
     38 C          60.0646   89.6229    8.4294 C.3     1  UNL1        0.0721
     39 C          59.7413   88.4036    9.2412 C.3     1  UNL1        0.0188
     40 C          59.1135   87.3923    8.3285 C.3     1  UNL1        0.0188
     41 C          59.0488   87.9865    6.9527 C.3     1  UNL1        0.0721
@<TRIPOS>BOND
     1     1     2    1
     2     2     3    2
     3     3     4    1
     4     4    31    1
     5    31    32    1
     6    32    33    1
     7    33    34    1
     8    34    37    1
     9    37    38    1
    10    38    39    1
    11    39    40    1
    12    40    41    1
    13    34    35    1
    14    35    36    1
    15     4     5    2
    16     5     6    1
    17     6     7    2
    18     7     8    1
    19     8    11    1
    20    11    12    1
    21    12    18    1
    22    18    20    1
    23    20    21    1
    24    21    22    1
    25    21    24    1
    26    24    25   ar
    27    25    26   ar
    28    26    27   ar
    29    27    28   ar
    30    28    29    1
    31    28    30   ar
    32    12    13    2
    33    13    14    1
    34    14    15    2
    35    15    16    1
    36    16    17    2
    37     8     9    2
    38     9    10    1
    39    10     2    1
    40    36    31    1
    41    10     6    1
    42    41    37    1
    43    16    11    1
    44    30    24   ar
    45    18    19    1
    46    22    23    1
@<TRIPOS>MOLECULE
*****
 41 46 0 0 0
SMALL
GASTEIGER

@<TRIPOS>ATOM
      1 C          63.5102   89.9486   17.2078 C.3     1  UNL1        0.0312
      2 C          63.6545   89.2418   15.8926 C.2     1  UNL1        0.0136
      3 C          63.3081   87.7866   15.7813 C.2     1  UNL1        0.0107
      4 C          63.4524   87.0798   14.4663 C.2     1  UNL1        0.0509
      5 C          63.9432   87.8281   13.2624 C.2     1  UNL1        0.0613
      6 C          64.2896   89.2833   13.3737 C.2     1  UNL1        0.2246
      7 N          64.7938   90.2748   12.3674 N.2     1  UNL1       -0.0378
      8 C          64.9612   91.5944   13.0606 C.2     1  UNL1        0.3605
      9 N          64.5603   91.4185   14.4953 N.2     1  UNL1       -0.0547
     10 C          64.1453   89.9901   14.6888 C.3     1  UNL1        0.2976
     11 C          65.4445   92.8666   12.4299 C.3     1  UNL1        0.2246
     12 C          65.3011   93.0722   10.9510 C.2     1  UNL1        0.0436
     13 C          65.7845   94.3445   10.3203 C.2     1  UNL1        0.0288
     14 C          66.4112   95.4112   11.1685 C.2     1  UNL1        0.0896
     15 N          66.5546   95.2056   12.6474 N.am    1  UNL1       -0.1770
     16 C          66.0712   93.9333   13.2780 C.2     1  UNL1        0.2627
     17 O          66.2146   93.7278   14.7570 O.2     1  UNL1       -0.2719
     18 N          64.6745   92.0056   10.1027 N.pl3   1  UNL1       -0.3329
     19 H          65.2401   91.3288    9.6654 H       1  UNL1        0.1466
     20 C          63.1860   91.9700    9.9208 C.3     1  UNL1        0.1211
     21 C          62.3600   90.9810   10.6886 C.3     1  UNL1        0.1522
     22 O          62.1227   91.1809   12.1561 O.3     1  UNL1       -0.3783
     23 H          62.5695   91.9907   12.4485 H       1  UNL1        0.2109
     24 C          61.7713   89.7920    9.9888 C.ar    1  UNL1        0.0067
     25 C          60.5083   89.9394    9.1931 C.ar    1  UNL1       -0.0018
     26 C          59.9196   88.7504    8.4933 C.ar    1  UNL1        0.0006
     27 C          60.5939   87.4139    8.5893 C.ar    1  UNL1        0.0114
     28 C          61.8568   87.2665    9.3850 C.ar    1  UNL1        0.0574
     29 CL         62.5311   85.9300    9.4809 Cl      1  UNL1       -0.0823
     30 C          62.4455   88.4555   10.0847 C.ar    1  UNL1        0.0095
     31 N          63.1060   85.6245   14.3549 N.pl3   1  UNL1       -0.3073
     32 C          62.7871   84.8329   15.5886 C.3     1  UNL1        0.0922
     33 C          62.4407   83.3778   15.4773 C.3     1  UNL1        0.0374
     34 C          62.4132   82.7141   14.1324 C.3     1  UNL1        0.0609
     35 C          62.7320   83.5057   12.8987 C.3     1  UNL1        0.0374
     36 C          63.0784   84.9608   13.0100 C.3     1  UNL1        0.0922
     37 N          62.0667   81.2590   14.0210 N.3     1  UNL1       -0.2738
     38 C          63.0232   80.1463   13.7092 C.3     1  UNL1        0.0721
     39 C          62.2505   78.8606   13.6973 C.3     1  UNL1        0.0188
     40 C          60.8167   79.1787   14.0018 C.3     1  UNL1        0.0188
     41 C          60.7031   80.6610   14.2019 C.3     1  UNL1        0.0721
@<TRIPOS>BOND
     1     1     2    1
     2     2     3    2
     3     3     4    1
     4     4    31    1
     5    31    32    1
     6    32    33    1
     7    33    34    1
     8    34    37    1
     9    37    38    1
    10    38    39    1
    11    39    40    1
    12    40    41    1
    13    34    35    1
    14    35    36    1
    15     4     5    2
    16     5     6    1
    17     6     7    2
    18     7     8    1
    19     8    11    1
    20    11    12    1
    21    12    18    1
    22    18    20    1
    23    20    21    1
    24    21    22    1
    25    21    24    1
    26    24    25   ar
    27    25    26   ar
    28    26    27   ar
    29    27    28   ar
    30    28    29    1
    31    28    30   ar
    32    12    13    2
    33    13    14    1
    34    14    15    2
    35    15    16    1
    36    16    17    2
    37     8     9    2
    38     9    10    1
    39    10     2    1
    40    36    31    1
    41    10     6    1
    42    41    37    1
    43    16    11    1
    44    30    24   ar
    45    18    19    1
    46    22    23    1
@<TRIPOS>MOLECULE
*****
 41 46 0 0 0
SMALL
GASTEIGER

@<TRIPOS>ATOM
      1 C          62.2949   95.8919    1.1367 C.3     1  UNL1        0.0312
      2 C          61.2226   94.8455    1.2100 C.2     1  UNL1        0.0136
      3 C          61.1228   93.9570    2.4144 C.2     1  UNL1        0.0107
      4 C          60.0505   92.9108    2.4877 C.2     1  UNL1        0.0509
      5 C          59.0780   92.7529    1.3566 C.2     1  UNL1        0.0613
      6 C          59.1778   93.6414    0.1522 C.2     1  UNL1        0.2246
      7 N          58.3673   93.7192   -1.1075 N.2     1  UNL1       -0.0378
      8 C          58.9386   94.8136   -1.9594 C.2     1  UNL1        0.3605
      9 N          60.1023   95.4122   -1.2262 N.2     1  UNL1       -0.0547
     10 C          60.2501   94.6877    0.0789 C.3     1  UNL1        0.2976
     11 C          58.4348   95.2355   -3.3078 C.3     1  UNL1        0.2246
     12 C          56.9864   95.0600   -3.6558 C.2     1  UNL1        0.0436
     13 C          56.4826   95.4819   -5.0043 C.2     1  UNL1        0.0288
     14 C          57.4272   96.0792   -6.0047 C.2     1  UNL1        0.0896
     15 N          58.8757   96.2547   -5.6567 N.am    1  UNL1       -0.1770
     16 C          59.3795   95.8328   -4.3082 C.2     1  UNL1        0.2627
     17 O          60.8279   96.0083   -3.9602 O.2     1  UNL1       -0.2719
     18 N          56.0417   94.4626   -2.6555 N.pl3   1  UNL1       -0.3329
     19 H          55.6399   95.0297   -1.9582 H       1  UNL1        0.1466
     20 C          55.7090   93.0013   -2.7176 C.3     1  UNL1        0.1211
     21 C          56.4902   92.0920   -3.6191 C.3     1  UNL1        0.1522
     22 O          57.9316   91.8003   -3.3238 O.3     1  UNL1       -0.3783
     23 H          58.1997   92.2751   -2.5215 H       1  UNL1        0.2109
     24 C          55.8300   91.4742   -4.8160 C.ar    1  UNL1        0.0067
     25 C          56.1449   91.9819   -6.1918 C.ar    1  UNL1       -0.0018
     26 C          55.4847   91.3641   -7.3887 C.ar    1  UNL1        0.0006
     27 C          54.5095   90.2386   -7.2097 C.ar    1  UNL1        0.0114
     28 C          54.1945   89.7309   -5.8339 C.ar    1  UNL1        0.0574
     29 CL         53.2193   88.6053   -5.6549 Cl      1  UNL1       -0.0823
     30 C          54.8547   90.3486   -4.6370 C.ar    1  UNL1        0.0095
     31 N          59.9507   92.0222    3.6922 N.pl3   1  UNL1       -0.3073
     32 C          61.1774   91.3466    4.2295 C.3     1  UNL1        0.0922
     33 C          61.0777   90.4581    5.4339 C.3     1  UNL1        0.0374
     34 C          59.7511   90.2452    6.1010 C.3     1  UNL1        0.0609
     35 C          58.5244   90.9209    5.5637 C.3     1  UNL1        0.0374
     36 C          58.6242   91.8094    4.3593 C.3     1  UNL1        0.0922
     37 N          59.6513   89.3568    7.3054 N.3     1  UNL1       -0.2738
     38 C          60.1686   89.6706    8.6779 C.3     1  UNL1        0.0721
     39 C          59.8535   88.5062    9.5696 C.3     1  UNL1        0.0188
     40 C          59.1415   87.4728    8.7480 C.3     1  UNL1        0.0188
     41 C          59.0165   87.9984    7.3487 C.3     1  UNL1        0.0721
@<TRIPOS>BOND
     1     1     2    1
     2     2     3    2
     3     3     4    1
     4     4    31    1
     5    31    32    1
     6    32    33    1
     7    33    34    1
     8    34    37    1
     9    37    38    1
    10    38    39    1
    11    39    40    1
    12    40    41    1
    13    34    35    1
    14    35    36    1
    15     4     5    2
    16     5     6    1
    17     6     7    2
    18     7     8    1
    19     8    11    1
    20    11    12    1
    21    12    18    1
    22    18    20    1
    23    20    21    1
    24    21    22    1
    25    21    24    1
    26    24    25   ar
    27    25    26   ar
    28    26    27   ar
    29    27    28   ar
    30    28    29    1
    31    28    30   ar
    32    12    13    2
    33    13    14    1
    34    14    15    2
    35    15    16    1
    36    16    17    2
    37     8     9    2
    38     9    10    1
    39    10     2    1
    40    36    31    1
    41    10     6    1
    42    41    37    1
    43    16    11    1
    44    30    24   ar
    45    18    19    1
    46    22    23    1
@<TRIPOS>MOLECULE
*****
 41 46 0 0 0
SMALL
GASTEIGER

@<TRIPOS>ATOM
      1 C          58.9072   86.7536    8.5281 C.3     1  UNL1        0.0312
      2 C          59.7203   87.9912    8.2888 C.2     1  UNL1        0.0136
      3 C          59.4966   88.8078    7.0506 C.2     1  UNL1        0.0107
      4 C          60.3096   90.0453    6.8113 C.2     1  UNL1        0.0509
      5 C          61.3464   90.4664    7.8103 C.2     1  UNL1        0.0613
      6 C          61.5701   89.6498    9.0485 C.2     1  UNL1        0.2246
      7 N          62.5135   89.8151   10.2029 N.2     1  UNL1       -0.0378
      8 C          62.2834   88.6797   11.1556 C.2     1  UNL1        0.3605
      9 N          61.1979   87.8126   10.5901 N.2     1  UNL1       -0.0547
     10 C          60.7570   88.4122    9.2877 C.3     1  UNL1        0.2976
     11 C          63.0112   88.4513   12.4473 C.3     1  UNL1        0.2246
     12 C          63.2812   87.0532   12.9190 C.2     1  UNL1        0.0436
     13 C          64.0089   86.8249   14.2106 C.2     1  UNL1        0.0288
     14 C          64.4666   87.9946   15.0306 C.2     1  UNL1        0.0896
     15 N          64.1966   89.3927   14.5589 N.am    1  UNL1       -0.1770
     16 C          63.4689   89.6210   13.2672 C.2     1  UNL1        0.2627
     17 O          63.1988   91.0190   12.7955 O.2     1  UNL1       -0.2719
     18 N          62.8235   85.8835   12.0991 N.pl3   1  UNL1       -0.3329
     19 H          62.6986   85.9821   11.1275 H       1  UNL1        0.1466
     20 C          62.5562   84.5635   12.7594 C.3     1  UNL1        0.1211
     21 C          63.6097   83.4958   12.7553 C.3     1  UNL1        0.1522
     22 O          65.0491   83.8616   12.9655 O.3     1  UNL1       -0.3783
     23 H          65.1244   84.8210   13.0877 H       1  UNL1        0.2109
     24 C          63.2238   82.0622   12.5409 C.ar    1  UNL1        0.0067
     25 C          62.8296   81.2088   13.7097 C.ar    1  UNL1       -0.0018
     26 C          62.4437   79.7752   13.4954 C.ar    1  UNL1        0.0006
     27 C          62.4520   79.1950   12.1122 C.ar    1  UNL1        0.0114
     28 C          62.8462   80.0485   10.9434 C.ar    1  UNL1        0.0574
     29 CL         62.8545   79.4683    9.5601 Cl      1  UNL1       -0.0823
     30 C          63.2321   81.4820   11.1577 C.ar    1  UNL1        0.0095
     31 N          60.0859   90.8619    5.5730 N.pl3   1  UNL1       -0.3073
     32 C          61.2454   91.2208    4.6917 C.3     1  UNL1        0.0922
     33 C          61.0217   92.0374    3.4535 C.3     1  UNL1        0.0374
     34 C          59.6386   92.4950    3.0966 C.3     1  UNL1        0.0609
     35 C          58.4790   92.1361    3.9780 C.3     1  UNL1        0.0374
     36 C          58.7027   91.3195    5.2162 C.3     1  UNL1        0.0922
     37 N          59.4148   93.3116    1.8585 N.3     1  UNL1       -0.2738
     38 C          58.7129   92.8529    0.6147 C.3     1  UNL1        0.0721
     39 C          58.7179   93.9881   -0.3658 C.3     1  UNL1        0.0188
     40 C          59.4230   95.1483    0.2720 C.3     1  UNL1        0.0188
     41 C          59.8537   94.7302    1.6467 C.3     1  UNL1        0.0721
@<TRIPOS>BOND
     1     1     2    1
     2     2     3    2
     3     3     4    1
     4     4    31    1
     5    31    32    1
     6    32    33    1
     7    33    34    1
     8    34    37    1
     9    37    38    1
    10    38    39    1
    11    39    40    1
    12    40    41    1
    13    34    35    1
    14    35    36    1
    15     4     5    2
    16     5     6    1
    17     6     7    2
    18     7     8    1
    19     8    11    1
    20    11    12    1
    21    12    18    1
    22    18    20    1
    23    20    21    1
    24    21    22    1
    25    21    24    1
    26    24    25   ar
    27    25    26   ar
    28    26    27   ar
    29    27    28   ar
    30    28    29    1
    31    28    30   ar
    32    12    13    2
    33    13    14    1
    34    14    15    2
    35    15    16    1
    36    16    17    2
    37     8     9    2
    38     9    10    1
    39    10     2    1
    40    36    31    1
    41    10     6    1
    42    41    37    1
    43    16    11    1
    44    30    24   ar
    45    18    19    1
    46    22    23    1
