@<TRIPOS>MOLECULE
*****
 36 39 0 0 0
SMALL
GASTEIGER

@<TRIPOS>ATOM
      1 C          63.4433   89.0939   12.5748 C.ar    1  UNL1        0.1389
      2 C          63.0690   87.7706   11.9758 C.ar    1  UNL1        0.0396
      3 C          63.3628   86.5011   12.7187 C.ar    1  UNL1        0.0343
      4 C          62.9886   85.1778   12.1195 C.ar    1  UNL1        0.0557
      5 C          63.2824   83.9082   12.8624 C.ar    1  UNL1        0.0856
      6 C          63.9504   83.9619   14.2044 C.ar    1  UNL1        0.1045
      7 N          64.3246   85.2852   14.8035 N.ar    1  UNL1       -0.2436
      8 C          64.0308   86.5548   14.0606 C.ar    1  UNL1        0.0827
      9 C          64.4051   87.8780   14.6596 C.ar    1  UNL1        0.0223
     10 C          64.1113   89.1476   13.9167 C.ar    1  UNL1        0.0394
     11 C          64.4855   90.4709   14.5159 C.ar    1  UNL1        0.0526
     12 C          64.0737   90.9750   15.8672 C.ar    1  UNL1        0.1007
     13 C          63.2153   90.2444   16.8568 C.3     1  UNL1        0.0557
     14 N          64.6710   92.3380   16.0553 N.ar    1  UNL1       -0.0817
     15 O          65.4520   92.6764   14.8201 O.2     1  UNL1       -0.3581
     16 C          65.3374   91.5224   13.8687 C.ar    1  UNL1        0.1545
     17 C          65.9645   91.4352   12.5089 C.3     1  UNL1        0.0754
     18 C          62.9081   82.5849   12.2634 C.2     1  UNL1        0.2455
     19 N          62.0589   81.6232   13.0404 N.am    1  UNL1       -0.3252
     20 O          63.3832   82.2234   10.8872 O.2     1  UNL1       -0.2703
     21 H          61.7471   81.8604   13.9436 H       1  UNL1        0.1453
     22 H          61.8133   80.7547   12.6472 H       1  UNL1        0.1453
     23 C          62.7485   90.3116   10.3875 C.3     1  UNL1        0.2525
     24 O          63.1495   90.3635   11.8319 O.3     1  UNL1       -0.4714
     25 N          62.3206   85.1241   10.7776 N.pl3   1  UNL1       -0.3126
     26 H          62.4822   84.3605   10.1775 H       1  UNL1        0.1522
     27 C          61.4063   86.2337   10.3500 C.ar    1  UNL1        0.0442
     28 C          60.7337   87.0907   11.3810 C.ar    1  UNL1        0.0143
     29 C          59.8194   88.2003   10.9534 C.ar    1  UNL1        0.0013
     30 C          59.5778   88.4529    9.4947 C.ar    1  UNL1       -0.0002
     31 C          60.2504   87.5960    8.4636 C.ar    1  UNL1       -0.0031
     32 C          61.1647   86.4863    8.8912 C.ar    1  UNL1       -0.0094
     33 C          61.8374   85.6294    7.8602 C.3     1  UNL1        0.0201
     34 C          63.1704   85.9340    8.4767 C.3     1  UNL1        0.0044
     35 C          60.5043   85.3247    7.2437 C.3     1  UNL1        0.0044
     36 C          62.5100   84.7724    6.8291 C.3     1  UNL1        0.0044
@<TRIPOS>BOND
     1    23    24    1
     2    24     1    1
     3     1     2   ar
     4     2     3   ar
     5     3     4   ar
     6     4    25    1
     7    25    27    1
     8    27    28   ar
     9    28    29   ar
    10    29    30   ar
    11    30    31   ar
    12    31    32   ar
    13    32    33    1
    14    33    34    1
    15    33    35    1
    16    33    36    1
    17     4     5   ar
    18     5    18    1
    19    18    19   am
    20    18    20    2
    21     5     6   ar
    22     6     7   ar
    23     7     8   ar
    24     8     9   ar
    25     9    10   ar
    26    10    11    1
    27    11    12   ar
    28    12    13    1
    29    12    14   ar
    30    14    15   ar
    31    15    16   ar
    32    16    17    1
    33    10     1   ar
    34    16    11   ar
    35     8     3   ar
    36    32    27   ar
    37    25    26    1
    38    19    21    1
    39    19    22    1
@<TRIPOS>MOLECULE
*****
 36 39 0 0 0
SMALL
GASTEIGER

@<TRIPOS>ATOM
      1 C          63.4433   89.1113   12.5804 C.ar    1  UNL1        0.1389
      2 C          63.0588   87.7870   11.9904 C.ar    1  UNL1        0.0396
      3 C          63.3531   86.5195   12.7367 C.ar    1  UNL1        0.0343
      4 C          62.9686   85.1951   12.1466 C.ar    1  UNL1        0.0557
      5 C          63.2629   83.9277   12.8929 C.ar    1  UNL1        0.0856
      6 C          63.9418   83.9847   14.2293 C.ar    1  UNL1        0.1045
      7 N          64.3263   85.3090   14.8193 N.ar    1  UNL1       -0.2436
      8 C          64.0320   86.5765   14.0730 C.ar    1  UNL1        0.0827
      9 C          64.4164   87.9008   14.6631 C.ar    1  UNL1        0.0223
     10 C          64.1221   89.1682   13.9167 C.ar    1  UNL1        0.0394
     11 C          64.5066   90.4927   14.5069 C.ar    1  UNL1        0.0526
     12 C          65.3739   91.5293   13.8564 C.ar    1  UNL1        0.1007
     13 C          66.0089   91.4237   12.5015 C.3     1  UNL1        0.0557
     14 N          65.4946   92.6902   14.7985 N.ar    1  UNL1       -0.0817
     15 O          64.7020   92.3710   16.0314 O.2     1  UNL1       -0.3581
     16 C          64.0914   91.0129   15.8511 C.ar    1  UNL1        0.1545
     17 C          63.2187   90.3000   16.8412 C.3     1  UNL1        0.0754
     18 C          62.8785   82.6033   12.3028 C.2     1  UNL1        0.2455
     19 N          62.0386   81.6451   13.0943 N.am    1  UNL1       -0.3252
     20 O          63.3338   82.2371   10.9213 O.2     1  UNL1       -0.2703
     21 H          61.7397   81.8854   14.0010 H       1  UNL1        0.1453
     22 H          61.7862   80.7758   12.7070 H       1  UNL1        0.1453
     23 C          62.7620   90.3238   10.3859 C.3     1  UNL1        0.2525
     24 O          63.1489   90.3787   11.8341 O.3     1  UNL1       -0.4714
     25 N          62.2898   85.1382   10.8102 N.pl3   1  UNL1       -0.3126
     26 H          62.4350   84.3662   10.2168 H       1  UNL1        0.1522
     27 C          61.3896   86.2575   10.3779 C.ar    1  UNL1        0.0442
     28 C          60.7171   87.1187   11.4056 C.ar    1  UNL1        0.0143
     29 C          59.8170   88.2380   10.9733 C.ar    1  UNL1        0.0013
     30 C          59.5893   88.4961    9.5134 C.ar    1  UNL1       -0.0002
     31 C          60.2618   87.6349    8.4856 C.ar    1  UNL1       -0.0031
     32 C          61.1619   86.5156    8.9179 C.ar    1  UNL1       -0.0094
     33 C          61.8344   85.6545    7.8902 C.3     1  UNL1        0.0201
     34 C          63.1669   85.9565    8.5091 C.3     1  UNL1        0.0044
     35 C          60.5018   85.3524    7.2714 C.3     1  UNL1        0.0044
     36 C          62.5069   84.7933    6.8626 C.3     1  UNL1        0.0044
@<TRIPOS>BOND
     1    23    24    1
     2    24     1    1
     3     1     2   ar
     4     2     3   ar
     5     3     4   ar
     6     4    25    1
     7    25    27    1
     8    27    28   ar
     9    28    29   ar
    10    29    30   ar
    11    30    31   ar
    12    31    32   ar
    13    32    33    1
    14    33    34    1
    15    33    35    1
    16    33    36    1
    17     4     5   ar
    18     5    18    1
    19    18    19   am
    20    18    20    2
    21     5     6   ar
    22     6     7   ar
    23     7     8   ar
    24     8     9   ar
    25     9    10   ar
    26    10    11    1
    27    11    12   ar
    28    12    13    1
    29    12    14   ar
    30    14    15   ar
    31    15    16   ar
    32    16    17    1
    33    10     1   ar
    34    16    11   ar
    35     8     3   ar
    36    32    27   ar
    37    25    26    1
    38    19    21    1
    39    19    22    1
@<TRIPOS>MOLECULE
*****
 36 39 0 0 0
SMALL
GASTEIGER

@<TRIPOS>ATOM
      1 C          64.0385   88.9399   13.9024 C.ar    1  UNL1        0.1389
      2 C          63.2384   87.9606   13.0958 C.ar    1  UNL1        0.0396
      3 C          62.6061   88.3911   11.8055 C.ar    1  UNL1        0.0343
      4 C          61.8060   87.4117   10.9988 C.ar    1  UNL1        0.0557
      5 C          61.1737   87.8423    9.7085 C.ar    1  UNL1        0.0856
      6 C          61.3416   89.2523    9.2249 C.ar    1  UNL1        0.1045
      7 N          62.1417   90.2316   10.0315 N.ar    1  UNL1       -0.2436
      8 C          62.7740   89.8010   11.3218 C.ar    1  UNL1        0.0827
      9 C          63.5741   90.7804   12.1284 C.ar    1  UNL1        0.0223
     10 C          64.2063   90.3498   13.4187 C.ar    1  UNL1        0.0394
     11 C          65.0064   91.3292   14.2254 C.ar    1  UNL1        0.0526
     12 C          64.7355   91.7320   15.6446 C.ar    1  UNL1        0.1007
     13 C          63.6169   91.2262   16.5065 C.3     1  UNL1        0.0557
     14 N          65.7796   92.7295   16.0508 N.ar    1  UNL1       -0.0817
     15 O          66.6959   92.9431   14.8825 O.2     1  UNL1       -0.3581
     16 C          66.2180   92.0777   13.7544 C.ar    1  UNL1        0.1545
     17 C          66.8422   91.9782   12.3940 C.3     1  UNL1        0.0754
     18 C          60.3736   86.8630    8.9019 C.2     1  UNL1        0.2455
     19 N          58.8921   86.7538    9.1093 N.am    1  UNL1       -0.3252
     20 O          61.0551   85.9927    7.8877 O.2     1  UNL1       -0.2703
     21 H          58.4448   87.3250    9.7748 H       1  UNL1        0.1453
     22 H          58.3669   86.1111    8.5798 H       1  UNL1        0.1453
     23 C          63.8713   87.7341   16.1976 C.3     1  UNL1        0.2525
     24 O          64.6707   88.5093   15.1927 O.3     1  UNL1       -0.4714
     25 N          61.6381   86.0018   11.4825 N.pl3   1  UNL1       -0.3126
     26 H          60.8781   85.7677   12.0628 H       1  UNL1        0.1522
     27 C          62.6282   84.9486   11.0819 C.ar    1  UNL1        0.0442
     28 C          63.0050   84.7833    9.6395 C.ar    1  UNL1        0.0143
     29 C          63.9952   83.7301    9.2389 C.ar    1  UNL1        0.0013
     30 C          64.6084   82.8422   10.2808 C.ar    1  UNL1       -0.0002
     31 C          64.2316   83.0075   11.7233 C.ar    1  UNL1       -0.0031
     32 C          63.2415   84.0607   12.1239 C.ar    1  UNL1       -0.0094
     33 C          62.8647   84.2261   13.5663 C.3     1  UNL1        0.0201
     34 C          61.8171   83.1634   13.4144 C.3     1  UNL1        0.0044
     35 C          63.9124   85.2888   13.7181 C.3     1  UNL1        0.0044
     36 C          62.4879   84.3915   15.0087 C.3     1  UNL1        0.0044
@<TRIPOS>BOND
     1    23    24    1
     2    24     1    1
     3     1     2   ar
     4     2     3   ar
     5     3     4   ar
     6     4    25    1
     7    25    27    1
     8    27    28   ar
     9    28    29   ar
    10    29    30   ar
    11    30    31   ar
    12    31    32   ar
    13    32    33    1
    14    33    34    1
    15    33    35    1
    16    33    36    1
    17     4     5   ar
    18     5    18    1
    19    18    19   am
    20    18    20    2
    21     5     6   ar
    22     6     7   ar
    23     7     8   ar
    24     8     9   ar
    25     9    10   ar
    26    10    11    1
    27    11    12   ar
    28    12    13    1
    29    12    14   ar
    30    14    15   ar
    31    15    16   ar
    32    16    17    1
    33    10     1   ar
    34    16    11   ar
    35     8     3   ar
    36    32    27   ar
    37    25    26    1
    38    19    21    1
    39    19    22    1
@<TRIPOS>MOLECULE
*****
 36 39 0 0 0
SMALL
GASTEIGER

@<TRIPOS>ATOM
      1 C          63.7225   89.9889   12.9517 C.ar    1  UNL1        0.1389
      2 C          63.1281   88.6462   12.6455 C.ar    1  UNL1        0.0396
      3 C          63.5783   87.4352   13.4077 C.ar    1  UNL1        0.0343
      4 C          62.9839   86.0925   13.1015 C.ar    1  UNL1        0.0557
      5 C          63.4341   84.8815   13.8637 C.ar    1  UNL1        0.0856
      6 C          64.4788   85.0134   14.9321 C.ar    1  UNL1        0.1045
      7 N          65.0732   86.3561   15.2382 N.ar    1  UNL1       -0.2436
      8 C          64.6229   87.5670   14.4760 C.ar    1  UNL1        0.0827
      9 C          65.2173   88.9098   14.7822 C.ar    1  UNL1        0.0223
     10 C          64.7671   90.1207   14.0200 C.ar    1  UNL1        0.0394
     11 C          65.3615   91.4635   14.3262 C.ar    1  UNL1        0.0526
     12 C          66.2797   92.2453   13.4343 C.ar    1  UNL1        0.1007
     13 C          66.7648   91.8218   12.0795 C.3     1  UNL1        0.0557
     14 N          66.6278   93.5251   14.1349 N.ar    1  UNL1       -0.0817
     15 O          65.9246   93.5343   15.4599 O.2     1  UNL1       -0.3581
     16 C          65.1421   92.2601   15.5781 C.ar    1  UNL1        0.1545
     17 C          64.2897   91.8538   16.7436 C.3     1  UNL1        0.0754
     18 C          62.8398   83.5388   13.5576 C.2     1  UNL1        0.2455
     19 N          63.5254   82.6175   12.5926 N.am    1  UNL1       -0.3252
     20 O          61.5597   83.1174   14.2163 O.2     1  UNL1       -0.2703
     21 H          64.3655   82.8941   12.1603 H       1  UNL1        0.1453
     22 H          63.1352   81.7362   12.3917 H       1  UNL1        0.1453
     23 C          63.6228   91.3459   10.7384 C.3     1  UNL1        0.2525
     24 O          63.2722   91.1998   12.1895 O.3     1  UNL1       -0.4714
     25 N          61.9393   85.9607   12.0332 N.pl3   1  UNL1       -0.3126
     26 H          60.9918   86.1186   12.2490 H       1  UNL1        0.1522
     27 C          62.3382   85.5883   10.6360 C.ar    1  UNL1        0.0442
     28 C          63.1937   84.3795   10.3972 C.ar    1  UNL1        0.0143
     29 C          63.5926   84.0071    9.0000 C.ar    1  UNL1        0.0013
     30 C          63.1361   84.8435    7.8416 C.ar    1  UNL1       -0.0002
     31 C          62.2806   86.0523    8.0803 C.ar    1  UNL1       -0.0031
     32 C          61.8817   86.4247    9.4775 C.ar    1  UNL1       -0.0094
     33 C          61.0263   87.6335    9.7163 C.3     1  UNL1        0.0201
     34 C          62.2583   88.4754    9.8685 C.3     1  UNL1        0.0044
     35 C          59.7942   86.7917    9.5640 C.3     1  UNL1        0.0044
     36 C          60.1708   88.8423    9.9550 C.3     1  UNL1        0.0044
@<TRIPOS>BOND
     1    23    24    1
     2    24     1    1
     3     1     2   ar
     4     2     3   ar
     5     3     4   ar
     6     4    25    1
     7    25    27    1
     8    27    28   ar
     9    28    29   ar
    10    29    30   ar
    11    30    31   ar
    12    31    32   ar
    13    32    33    1
    14    33    34    1
    15    33    35    1
    16    33    36    1
    17     4     5   ar
    18     5    18    1
    19    18    19   am
    20    18    20    2
    21     5     6   ar
    22     6     7   ar
    23     7     8   ar
    24     8     9   ar
    25     9    10   ar
    26    10    11    1
    27    11    12   ar
    28    12    13    1
    29    12    14   ar
    30    14    15   ar
    31    15    16   ar
    32    16    17    1
    33    10     1   ar
    34    16    11   ar
    35     8     3   ar
    36    32    27   ar
    37    25    26    1
    38    19    21    1
    39    19    22    1
@<TRIPOS>MOLECULE
*****
 36 39 0 0 0
SMALL
GASTEIGER

@<TRIPOS>ATOM
      1 C          62.8492   84.9359   13.1940 C.ar    1  UNL1        0.1389
      2 C          62.6750   86.4237   13.1176 C.ar    1  UNL1        0.0396
      3 C          62.3282   87.0722   11.8102 C.ar    1  UNL1        0.0343
      4 C          62.1540   88.5601   11.7339 C.ar    1  UNL1        0.0557
      5 C          61.8072   89.2085   10.4265 C.ar    1  UNL1        0.0856
      6 C          61.6347   88.3690    9.1954 C.ar    1  UNL1        0.1045
      7 N          61.8089   86.8811    9.2718 N.ar    1  UNL1       -0.2436
      8 C          62.1557   86.2327   10.5792 C.ar    1  UNL1        0.0827
      9 C          62.3299   84.7449   10.6556 C.ar    1  UNL1        0.0223
     10 C          62.6766   84.0964   11.9630 C.ar    1  UNL1        0.0394
     11 C          62.8508   82.6085   12.0393 C.ar    1  UNL1        0.0526
     12 C          62.2467   81.7018   13.0702 C.ar    1  UNL1        0.1007
     13 C          61.3622   82.1237   14.2059 C.3     1  UNL1        0.0557
     14 N          62.6823   80.2990   12.7661 N.ar    1  UNL1       -0.0817
     15 O          63.5557   80.3387   11.5472 O.2     1  UNL1       -0.3581
     16 C          63.6598   81.7661   11.0980 C.ar    1  UNL1        0.1545
     17 C          64.4366   82.2637    9.9152 C.3     1  UNL1        0.0754
     18 C          61.6330   90.6964   10.3501 C.2     1  UNL1        0.2455
     19 N          62.6656   91.5380    9.6606 N.am    1  UNL1       -0.3252
     20 O          60.4262   91.3427   10.9633 O.2     1  UNL1       -0.2703
     21 H          63.4577   91.1138    9.2582 H       1  UNL1        0.1453
     22 H          62.5513   92.5146    9.6105 H       1  UNL1        0.1453
     23 C          64.6324   84.0565   14.8664 C.3     1  UNL1        0.2525
     24 O          63.1959   84.2875   14.5014 O.3     1  UNL1       -0.4714
     25 N          62.3265   89.3996   12.9649 N.pl3   1  UNL1       -0.3126
     26 H          61.5970   89.4643   13.6228 H       1  UNL1        0.1522
     27 C          63.6106   90.1403   13.1937 C.ar    1  UNL1        0.0442
     28 C          64.1271   91.0860   12.1502 C.ar    1  UNL1        0.0143
     29 C          65.4112   91.8267   12.3789 C.ar    1  UNL1        0.0013
     30 C          66.1789   91.6219   13.6512 C.ar    1  UNL1       -0.0002
     31 C          65.6624   90.6762   14.6948 C.ar    1  UNL1       -0.0031
     32 C          64.3783   89.9354   14.4660 C.ar    1  UNL1       -0.0094
     33 C          63.8618   88.9898   15.5096 C.3     1  UNL1        0.0201
     34 C          63.1822   90.1306   16.2070 C.3     1  UNL1        0.0044
     35 C          64.5414   87.8489   14.8121 C.3     1  UNL1        0.0044
     36 C          63.3453   88.0441   16.5531 C.3     1  UNL1        0.0044
@<TRIPOS>BOND
     1    23    24    1
     2    24     1    1
     3     1     2   ar
     4     2     3   ar
     5     3     4   ar
     6     4    25    1
     7    25    27    1
     8    27    28   ar
     9    28    29   ar
    10    29    30   ar
    11    30    31   ar
    12    31    32   ar
    13    32    33    1
    14    33    34    1
    15    33    35    1
    16    33    36    1
    17     4     5   ar
    18     5    18    1
    19    18    19   am
    20    18    20    2
    21     5     6   ar
    22     6     7   ar
    23     7     8   ar
    24     8     9   ar
    25     9    10   ar
    26    10    11    1
    27    11    12   ar
    28    12    13    1
    29    12    14   ar
    30    14    15   ar
    31    15    16   ar
    32    16    17    1
    33    10     1   ar
    34    16    11   ar
    35     8     3   ar
    36    32    27   ar
    37    25    26    1
    38    19    21    1
    39    19    22    1
@<TRIPOS>MOLECULE
*****
 36 39 0 0 0
SMALL
GASTEIGER

@<TRIPOS>ATOM
      1 C          63.9899   88.2354   13.6241 C.ar    1  UNL1        0.1389
      2 C          63.4863   87.2406   12.6208 C.ar    1  UNL1        0.0396
      3 C          62.6062   87.6925   11.4933 C.ar    1  UNL1        0.0343
      4 C          62.1026   86.6976   10.4899 C.ar    1  UNL1        0.0557
      5 C          61.2225   87.1494    9.3624 C.ar    1  UNL1        0.0856
      6 C          60.8459   88.5961    9.2383 C.ar    1  UNL1        0.1045
      7 N          61.3495   89.5909   10.2416 N.ar    1  UNL1       -0.2436
      8 C          62.2296   89.1391   11.3691 C.ar    1  UNL1        0.0827
      9 C          62.7332   90.1339   12.3725 C.ar    1  UNL1        0.0223
     10 C          63.6133   89.6821   13.5000 C.ar    1  UNL1        0.0394
     11 C          64.1169   90.6769   14.5033 C.ar    1  UNL1        0.0526
     12 C          63.7732   90.7081   15.9631 C.ar    1  UNL1        0.1007
     13 C          62.8656   89.7499   16.6758 C.3     1  UNL1        0.0557
     14 N          64.4965   91.8657   16.5850 N.ar    1  UNL1       -0.0817
     15 O          65.2873   92.5501   15.5096 O.2     1  UNL1       -0.3581
     16 C          65.0527   91.8153   14.2231 C.ar    1  UNL1        0.1545
     17 C          65.6491   92.1587   12.8903 C.3     1  UNL1        0.0754
     18 C          60.7189   86.1546    8.3591 C.2     1  UNL1        0.2455
     19 N          59.2643   86.1286    7.9937 N.am    1  UNL1       -0.3252
     20 O          61.6699   85.1858    7.7211 O.2     1  UNL1       -0.2703
     21 H          58.6401   86.7645    8.4124 H       1  UNL1        0.1453
     22 H          58.9338   85.4757    7.3352 H       1  UNL1        0.1453
     23 C          64.9859   86.3232   15.0737 C.3     1  UNL1        0.2525
     24 O          64.8700   87.7836   14.7516 O.3     1  UNL1       -0.4714
     25 N          62.4791   85.2510   10.6141 N.pl3   1  UNL1       -0.3126
     26 H          62.7175   84.7337    9.8111 H       1  UNL1        0.1522
     27 C          62.4924   84.5924   11.9617 C.ar    1  UNL1        0.0442
     28 C          61.8643   85.2789   13.1382 C.ar    1  UNL1        0.0143
     29 C          61.8775   84.6204   14.4858 C.ar    1  UNL1        0.0013
     30 C          62.5189   83.2753   14.6570 C.ar    1  UNL1       -0.0002
     31 C          63.1471   82.5887   13.4805 C.ar    1  UNL1       -0.0031
     32 C          63.1338   83.2473   12.1329 C.ar    1  UNL1       -0.0094
     33 C          63.7620   82.5608   10.9564 C.3     1  UNL1        0.0201
     34 C          64.7173   83.7063   10.7980 C.3     1  UNL1        0.0044
     35 C          62.8067   81.4152   11.1148 C.3     1  UNL1        0.0044
     36 C          64.3901   81.8742    9.7799 C.3     1  UNL1        0.0044
@<TRIPOS>BOND
     1    23    24    1
     2    24     1    1
     3     1     2   ar
     4     2     3   ar
     5     3     4   ar
     6     4    25    1
     7    25    27    1
     8    27    28   ar
     9    28    29   ar
    10    29    30   ar
    11    30    31   ar
    12    31    32   ar
    13    32    33    1
    14    33    34    1
    15    33    35    1
    16    33    36    1
    17     4     5   ar
    18     5    18    1
    19    18    19   am
    20    18    20    2
    21     5     6   ar
    22     6     7   ar
    23     7     8   ar
    24     8     9   ar
    25     9    10   ar
    26    10    11    1
    27    11    12   ar
    28    12    13    1
    29    12    14   ar
    30    14    15   ar
    31    15    16   ar
    32    16    17    1
    33    10     1   ar
    34    16    11   ar
    35     8     3   ar
    36    32    27   ar
    37    25    26    1
    38    19    21    1
    39    19    22    1
@<TRIPOS>MOLECULE
*****
 36 39 0 0 0
SMALL
GASTEIGER

@<TRIPOS>ATOM
      1 C          63.8735   85.2104   13.2034 C.ar    1  UNL1        0.1389
      2 C          63.8456   86.6789   12.8991 C.ar    1  UNL1        0.0396
      3 C          62.7993   87.2344   11.9788 C.ar    1  UNL1        0.0343
      4 C          62.7714   88.7030   11.6745 C.ar    1  UNL1        0.0557
      5 C          61.7252   89.2585   10.7543 C.ar    1  UNL1        0.0856
      6 C          60.7068   88.3454   10.1384 C.ar    1  UNL1        0.1045
      7 N          60.7347   86.8769   10.4428 N.ar    1  UNL1       -0.2436
      8 C          61.7809   86.3214   11.3630 C.ar    1  UNL1        0.0827
      9 C          61.8088   84.8529   11.6674 C.ar    1  UNL1        0.0223
     10 C          62.8551   84.2974   12.5876 C.ar    1  UNL1        0.0394
     11 C          62.8829   82.8288   12.8919 C.ar    1  UNL1        0.0526
     12 C          62.5405   82.1943   14.2073 C.ar    1  UNL1        0.1007
     13 C          62.1100   82.9169   15.4492 C.3     1  UNL1        0.0557
     14 N          62.7040   80.7103   14.0626 N.ar    1  UNL1       -0.0817
     15 O          63.1476   80.4276   12.6578 O.2     1  UNL1       -0.3581
     16 C          63.2582   81.7369   11.9343 C.ar    1  UNL1        0.1545
     17 C          63.6715   81.9219   10.5043 C.3     1  UNL1        0.0754
     18 C          61.6973   90.7270   10.4499 C.2     1  UNL1        0.2455
     19 N          62.8062   91.3492    9.6542 N.am    1  UNL1       -0.3252
     20 O          60.5604   91.5733   10.9413 O.2     1  UNL1       -0.2703
     21 H          63.5523   90.7937    9.3317 H       1  UNL1        0.1453
     22 H          62.7879   92.3130    9.4544 H       1  UNL1        0.1453
     23 C          64.9714   85.0990   15.5554 C.3     1  UNL1        0.2525
     24 O          64.9197   84.6549   14.1236 O.3     1  UNL1       -0.4714
     25 N          63.7898   89.6160   12.2903 N.pl3   1  UNL1       -0.3126
     26 H          64.5197   89.9818   11.7401 H       1  UNL1        0.1522
     27 C          63.6962   89.9717   13.7445 C.ar    1  UNL1        0.0442
     28 C          62.6750   89.3028   14.6160 C.ar    1  UNL1        0.0143
     29 C          62.5814   89.6585   16.0703 C.ar    1  UNL1        0.0013
     30 C          63.5090   90.6832   16.6529 C.ar    1  UNL1       -0.0002
     31 C          64.5303   91.3522   15.7814 C.ar    1  UNL1       -0.0031
     32 C          64.6239   90.9964   14.3272 C.ar    1  UNL1       -0.0094
     33 C          65.6451   91.6654   13.4557 C.3     1  UNL1        0.0201
     34 C          66.7312   91.2301   14.3942 C.3     1  UNL1        0.0044
     35 C          64.5590   92.1007   12.5171 C.3     1  UNL1        0.0044
     36 C          66.6663   92.3343   12.5842 C.3     1  UNL1        0.0044
@<TRIPOS>BOND
     1    23    24    1
     2    24     1    1
     3     1     2   ar
     4     2     3   ar
     5     3     4   ar
     6     4    25    1
     7    25    27    1
     8    27    28   ar
     9    28    29   ar
    10    29    30   ar
    11    30    31   ar
    12    31    32   ar
    13    32    33    1
    14    33    34    1
    15    33    35    1
    16    33    36    1
    17     4     5   ar
    18     5    18    1
    19    18    19   am
    20    18    20    2
    21     5     6   ar
    22     6     7   ar
    23     7     8   ar
    24     8     9   ar
    25     9    10   ar
    26    10    11    1
    27    11    12   ar
    28    12    13    1
    29    12    14   ar
    30    14    15   ar
    31    15    16   ar
    32    16    17    1
    33    10     1   ar
    34    16    11   ar
    35     8     3   ar
    36    32    27   ar
    37    25    26    1
    38    19    21    1
    39    19    22    1
@<TRIPOS>MOLECULE
*****
 36 39 0 0 0
SMALL
GASTEIGER

@<TRIPOS>ATOM
      1 C          62.3447   85.3089   11.5785 C.ar    1  UNL1        0.1389
      2 C          62.4042   86.7184   12.0880 C.ar    1  UNL1        0.0396
      3 C          63.2729   87.0549   13.2636 C.ar    1  UNL1        0.0343
      4 C          63.3323   88.4646   13.7731 C.ar    1  UNL1        0.0557
      5 C          64.2010   88.8011   14.9487 C.ar    1  UNL1        0.0856
      6 C          65.0103   87.7281   15.6148 C.ar    1  UNL1        0.1045
      7 N          64.9509   86.3185   15.1053 N.ar    1  UNL1       -0.2436
      8 C          64.0822   85.9820   13.9297 C.ar    1  UNL1        0.0827
      9 C          64.0227   84.5724   13.4202 C.ar    1  UNL1        0.0223
     10 C          63.1540   84.2359   12.2446 C.ar    1  UNL1        0.0394
     11 C          63.0946   82.8263   11.7351 C.ar    1  UNL1        0.0526
     12 C          62.4779   81.6575   12.4447 C.ar    1  UNL1        0.1007
     13 C          61.8122   81.6931   13.7884 C.3     1  UNL1        0.0557
     14 N          62.6436   80.4469   11.5747 N.ar    1  UNL1       -0.0817
     15 O          63.3629   80.8674   10.3273 O.2     1  UNL1       -0.3581
     16 C          63.6416   82.3380   10.4265 C.ar    1  UNL1        0.1545
     17 C          64.3439   83.1735    9.3976 C.3     1  UNL1        0.0754
     18 C          64.2604   90.2107   15.4582 C.2     1  UNL1        0.2455
     19 N          65.4766   91.0504   15.2014 N.am    1  UNL1       -0.3252
     20 O          63.1037   90.7806   16.2246 O.2     1  UNL1       -0.2703
     21 H          66.2358   90.6763   14.6984 H       1  UNL1        0.1453
     22 H          65.5156   91.9755   15.5358 H       1  UNL1        0.1453
     23 C          61.7211   85.6291    9.0768 C.3     1  UNL1        0.2525
     24 O          61.4760   84.9723   10.4029 O.3     1  UNL1       -0.4714
     25 N          62.5230   89.5375   13.1070 N.pl3   1  UNL1       -0.3126
     26 H          61.5605   89.6179   13.2974 H       1  UNL1        0.1522
     27 C          63.1803   90.4881   12.1507 C.ar    1  UNL1        0.0442
     28 C          64.3550   91.3075   12.5962 C.ar    1  UNL1        0.0143
     29 C          65.0122   92.2581   11.6400 C.ar    1  UNL1        0.0013
     30 C          64.4948   92.3893   10.2382 C.ar    1  UNL1       -0.0002
     31 C          63.3200   91.5698    9.7926 C.ar    1  UNL1       -0.0031
     32 C          62.6627   90.6192   10.7489 C.ar    1  UNL1       -0.0094
     33 C          61.4880   89.7998   10.3034 C.3     1  UNL1        0.0201
     34 C          62.4163   88.8424    9.6167 C.3     1  UNL1        0.0044
     35 C          60.5597   90.7573   10.9901 C.3     1  UNL1        0.0044
     36 C          60.3133   88.9804    9.8579 C.3     1  UNL1        0.0044
@<TRIPOS>BOND
     1    23    24    1
     2    24     1    1
     3     1     2   ar
     4     2     3   ar
     5     3     4   ar
     6     4    25    1
     7    25    27    1
     8    27    28   ar
     9    28    29   ar
    10    29    30   ar
    11    30    31   ar
    12    31    32   ar
    13    32    33    1
    14    33    34    1
    15    33    35    1
    16    33    36    1
    17     4     5   ar
    18     5    18    1
    19    18    19   am
    20    18    20    2
    21     5     6   ar
    22     6     7   ar
    23     7     8   ar
    24     8     9   ar
    25     9    10   ar
    26    10    11    1
    27    11    12   ar
    28    12    13    1
    29    12    14   ar
    30    14    15   ar
    31    15    16   ar
    32    16    17    1
    33    10     1   ar
    34    16    11   ar
    35     8     3   ar
    36    32    27   ar
    37    25    26    1
    38    19    21    1
    39    19    22    1
@<TRIPOS>MOLECULE
*****
 36 39 0 0 0
SMALL
GASTEIGER

@<TRIPOS>ATOM
      1 C          63.3567   85.5738   13.2726 C.ar    1  UNL1        0.1389
      2 C          62.8434   86.9474   12.9571 C.ar    1  UNL1        0.0396
      3 C          61.9477   87.1597   11.7728 C.ar    1  UNL1        0.0343
      4 C          61.4344   88.5335   11.4573 C.ar    1  UNL1        0.0557
      5 C          60.5387   88.7457   10.2730 C.ar    1  UNL1        0.0856
      6 C          60.1563   87.5843    9.4041 C.ar    1  UNL1        0.1045
      7 N          60.6696   86.2106    9.7195 N.ar    1  UNL1       -0.2436
      8 C          61.5653   85.9984   10.9039 C.ar    1  UNL1        0.0827
      9 C          62.0786   84.6247   11.2194 C.ar    1  UNL1        0.0223
     10 C          62.9743   84.4124   12.4037 C.ar    1  UNL1        0.0394
     11 C          63.4876   83.0387   12.7192 C.ar    1  UNL1        0.0526
     12 C          64.3528   82.1952   11.8305 C.ar    1  UNL1        0.1007
     13 C          64.8568   82.5772   10.4703 C.3     1  UNL1        0.0557
     14 N          64.6257   80.9025   12.5408 N.ar    1  UNL1       -0.0817
     15 O          63.9291   80.9471   13.8685 O.2     1  UNL1       -0.3581
     16 C          63.2257   82.2673   13.9787 C.ar    1  UNL1        0.1545
     17 C          62.4046   82.7342   15.1439 C.3     1  UNL1        0.0754
     18 C          60.0254   90.1194    9.9575 C.2     1  UNL1        0.2455
     19 N          59.9134   90.5689    8.5308 N.am    1  UNL1       -0.3252
     20 O          59.6241   91.0436   11.0687 O.2     1  UNL1       -0.2703
     21 H          60.1768   89.9623    7.8015 H       1  UNL1        0.1453
     22 H          59.5765   91.4705    8.3238 H       1  UNL1        0.1453
     23 C          63.8569   85.8956   15.8016 C.3     1  UNL1        0.2525
     24 O          64.2524   85.3615   14.4569 O.3     1  UNL1       -0.4714
     25 N          61.8168   89.6948   12.3262 N.pl3   1  UNL1       -0.3126
     26 H          61.2850   89.9064   13.1272 H       1  UNL1        0.1522
     27 C          63.0094   90.5339   11.9746 C.ar    1  UNL1        0.0442
     28 C          63.1444   91.1043   10.5939 C.ar    1  UNL1        0.0143
     29 C          64.3370   91.9433   10.2423 C.ar    1  UNL1        0.0013
     30 C          65.3947   92.2120   11.2714 C.ar    1  UNL1       -0.0002
     31 C          65.2597   91.6415   12.6522 C.ar    1  UNL1       -0.0031
     32 C          64.0671   90.8025   13.0038 C.ar    1  UNL1       -0.0094
     33 C          63.9321   90.2321   14.3845 C.3     1  UNL1        0.0201
     34 C          64.3270   88.8814   13.8651 C.3     1  UNL1        0.0044
     35 C          63.5373   91.5827   14.9039 C.3     1  UNL1        0.0044
     36 C          63.7972   89.6616   15.7652 C.3     1  UNL1        0.0044
@<TRIPOS>BOND
     1    23    24    1
     2    24     1    1
     3     1     2   ar
     4     2     3   ar
     5     3     4   ar
     6     4    25    1
     7    25    27    1
     8    27    28   ar
     9    28    29   ar
    10    29    30   ar
    11    30    31   ar
    12    31    32   ar
    13    32    33    1
    14    33    34    1
    15    33    35    1
    16    33    36    1
    17     4     5   ar
    18     5    18    1
    19    18    19   am
    20    18    20    2
    21     5     6   ar
    22     6     7   ar
    23     7     8   ar
    24     8     9   ar
    25     9    10   ar
    26    10    11    1
    27    11    12   ar
    28    12    13    1
    29    12    14   ar
    30    14    15   ar
    31    15    16   ar
    32    16    17    1
    33    10     1   ar
    34    16    11   ar
    35     8     3   ar
    36    32    27   ar
    37    25    26    1
    38    19    21    1
    39    19    22    1
