@<TRIPOS>MOLECULE
*****
 59 64 0 0 0
SMALL
GASTEIGER

@<TRIPOS>ATOM
      1 C          59.8847   90.1171    6.4902 C.ar    1  UNL1        0.0180
      2 C          58.6422   90.6148    5.8131 C.ar    1  UNL1        0.0015
      3 C          58.7421   91.3540    4.5117 C.ar    1  UNL1        0.0000
      4 C          60.0845   91.5954    3.8874 C.ar    1  UNL1        0.0000
      5 C          61.3270   91.0977    4.5645 C.ar    1  UNL1        0.0000
      6 C          61.2271   90.3586    5.8659 C.ar    1  UNL1        0.0015
      7 C          59.6532   88.8917   10.1659 C.ar    1  UNL1        0.1363
      8 N          59.6092   87.5894    9.4228 N.ar    1  UNL1       -0.2181
      9 C          59.6905   87.8899    7.9555 C.ar    1  UNL1        0.1551
     10 CL         59.6795   86.8797    6.8467 Cl      1  UNL1       -0.0598
     11 C          59.7848   89.3779    7.7916 C.ar    1  UNL1        0.0863
     12 N          59.7618   89.9970    9.1577 N.ar    1  UNL1       -0.3388
     13 H          59.8095   90.9599    9.3576 H       1  UNL1        0.1672
     14 C          62.1136   89.8583   12.0793 C.2     1  UNL1        0.2439
     15 O          62.4663   89.7834   10.6233 O.2     1  UNL1       -0.2731
     16 N          60.7293   89.5035   12.5349 N.am    1  UNL1       -0.2730
     17 C          60.2328   89.5307   13.9501 C.3     1  UNL1        0.0939
     18 C          58.7950   89.1031   13.9452 C.3     1  UNL1        0.0237
     19 C          58.4029   88.8117   12.5270 C.3     1  UNL1        0.0293
     20 C          59.5983   89.0592   11.6555 C.3     1  UNL1        0.1319
     21 C          63.1454   90.2881   13.0797 C.3     1  UNL1        0.1512
     22 C          65.1768   91.8694   13.4303 C.2     1  UNL1        0.4021
     23 O          65.9756   90.7224   13.9747 O.2     1  UNL1       -0.2264
     24 N          63.7616   91.6522   12.9828 N.am    1  UNL1       -0.2640
     25 H          63.2373   92.4050   12.6255 H       1  UNL1        0.1532
     26 C          66.9447   93.6010   14.2214 C.3     1  UNL1        0.2573
     27 O          65.7929   93.2335   13.3334 O.3     1  UNL1       -0.4306
     28 C          63.5608   89.3537   14.1771 C.3     1  UNL1        0.0270
     29 C          63.4342   89.7769   15.6106 C.3     1  UNL1        0.0022
     30 C          64.1029   87.9959   13.8411 C.3     1  UNL1        0.0022
     31 C          60.1843   92.3346    2.5860 C.ar    1  UNL1        0.0000
     32 C          61.5293   92.6160    1.9845 C.ar    1  UNL1        0.0001
     33 C          61.6292   93.3552    0.6831 C.ar    1  UNL1        0.0035
     34 C          60.3840   93.8130   -0.0168 C.ar    1  UNL1        0.0444
     35 C          59.0389   93.5316    0.5847 C.ar    1  UNL1        0.0035
     36 C          58.9391   92.7924    1.8861 C.ar    1  UNL1        0.0001
     37 C          60.4838   94.5521   -1.3182 C.2     1  UNL1        0.2354
     38 N          60.0592   94.0350   -2.6608 N.2     1  UNL1       -0.0360
     39 C          60.3387   95.1015   -3.6779 C.2     1  UNL1        0.3657
     40 N          60.9360   96.2778   -2.9639 N.2     1  UNL1       -0.0406
     41 C          61.0256   95.9382   -1.5056 C.3     1  UNL1        0.3584
     42 CL         61.5628   96.8285   -0.4245 Cl      1  UNL1       -0.0503
     43 C          60.0684   95.0081   -5.1503 C.3     1  UNL1        0.1874
     44 C          61.0887   95.1275   -6.2433 C.3     1  UNL1        0.0344
     45 C          60.3812   94.9722   -7.5568 C.3     1  UNL1        0.0238
     46 C          58.9236   94.7567   -7.2756 C.3     1  UNL1        0.0940
     47 N          58.7303   94.7789   -5.7882 N.am    1  UNL1       -0.2691
     48 C          57.4276   94.6028   -5.0657 C.2     1  UNL1        0.2440
     49 O          57.3889   94.6493   -3.5670 O.2     1  UNL1       -0.2731
     50 C          56.1636   94.3802   -5.8421 C.3     1  UNL1        0.1512
     51 N          55.9836   93.1211   -6.6372 N.am    1  UNL1       -0.2640
     52 C          55.8732   91.8001   -5.9353 C.2     1  UNL1        0.4021
     53 O          55.9429   91.7382   -4.4382 O.2     1  UNL1       -0.2264
     54 H          55.9379   93.1618   -7.6198 H       1  UNL1        0.1532
     55 O          55.6932   90.5410   -6.7305 O.3     1  UNL1       -0.4306
     56 C          54.3139   90.0549   -7.0634 C.3     1  UNL1        0.2573
     57 C          55.0795   95.4168   -5.8233 C.3     1  UNL1        0.0270
     58 C          54.5028   95.9224   -7.1123 C.3     1  UNL1        0.0022
     59 C          54.5720   95.9477   -4.5153 C.3     1  UNL1        0.0022
@<TRIPOS>BOND
     1    26    27    1
     2    27    22    1
     3    22    23    2
     4    22    24   am
     5    21    24    1
     6    21    14    1
     7    14    15    2
     8    14    16   am
     9    16    17    1
    10    17    18    1
    11    18    19    1
    12    19    20    1
    13    20     7    1
    14     7     8   ar
    15     8     9   ar
    16     9    10    1
    17     9    11   ar
    18    11     1    1
    19     1     2   ar
    20     2     3   ar
    21     3     4   ar
    22     4    31    1
    23    31    32   ar
    24    32    33   ar
    25    33    34   ar
    26    34    37    1
    27    37    38    2
    28    38    39    1
    29    43    39    1
    30    43    44    1
    31    44    45    1
    32    45    46    1
    33    46    47    1
    34    47    48   am
    35    48    49    2
    36    48    50    1
    37    50    51    1
    38    51    52   am
    39    52    53    2
    40    52    55    1
    41    55    56    1
    42    50    57    1
    43    57    58    1
    44    57    59    1
    45    39    40    2
    46    40    41    1
    47    41    42    1
    48    34    35   ar
    49    35    36   ar
    50     4     5   ar
    51     5     6   ar
    52    11    12   ar
    53    21    28    1
    54    28    29    1
    55    28    30    1
    56    20    16    1
    57    12     7   ar
    58     6     1   ar
    59    36    31   ar
    60    41    37    1
    61    47    43    1
    62    24    25    1
    63    51    54    1
    64    12    13    1
@<TRIPOS>MOLECULE
*****
 59 64 0 0 0
SMALL
GASTEIGER

@<TRIPOS>ATOM
      1 C          59.9382   90.1485    6.4333 C.ar    1  UNL1        0.0180
      2 C          58.7364   90.7061    5.7301 C.ar    1  UNL1        0.0015
      3 C          58.9014   91.4490    4.4375 C.ar    1  UNL1        0.0000
      4 C          60.2683   91.6341    3.8481 C.ar    1  UNL1        0.0000
      5 C          61.4701   91.0765    4.5513 C.ar    1  UNL1        0.0000
      6 C          61.3051   90.3337    5.8439 C.ar    1  UNL1        0.0015
      7 C          59.6084   88.9033   10.0948 C.ar    1  UNL1        0.1363
      8 N          59.4304   87.6218    9.3357 N.ar    1  UNL1       -0.2181
      9 C          59.5323   87.9323    7.8717 C.ar    1  UNL1        0.1551
     10 CL         59.4139   86.9431    6.7504 Cl      1  UNL1       -0.0598
     11 C          59.7733   89.4056    7.7260 C.ar    1  UNL1        0.0863
     12 N          59.8203   90.0057    9.1000 N.ar    1  UNL1       -0.3388
     13 H          59.9649   90.9562    9.3116 H       1  UNL1        0.1672
     14 C          62.0577   89.9854   11.9601 C.2     1  UNL1        0.2439
     15 O          62.3796   89.9413   10.4958 O.2     1  UNL1       -0.2731
     16 N          60.7054   89.5529   12.4441 N.am    1  UNL1       -0.2730
     17 C          60.2415   89.5419   13.8706 C.3     1  UNL1        0.0939
     18 C          58.8290   89.0377   13.8947 C.3     1  UNL1        0.0237
     19 C          58.4199   88.7371   12.4833 C.3     1  UNL1        0.0293
     20 C          59.5796   89.0555   11.5868 C.3     1  UNL1        0.1319
     21 C          63.0880   90.4620   12.9406 C.3     1  UNL1        0.1512
     22 C          65.1145   92.0860   13.0183 C.2     1  UNL1        0.4021
     23 O          66.0260   90.9340   13.3221 O.2     1  UNL1       -0.2264
     24 N          63.6455   91.8499   12.8276 N.am    1  UNL1       -0.2640
     25 H          63.0473   92.6060   12.6283 H       1  UNL1        0.1532
     26 C          66.0490   94.0237   11.5616 C.3     1  UNL1        0.2573
     27 O          65.6719   93.4739   12.9054 O.3     1  UNL1       -0.4306
     28 C          63.5609   89.5505   14.0340 C.3     1  UNL1        0.0270
     29 C          64.0633   88.1770   13.7007 C.3     1  UNL1        0.0022
     30 C          63.5314   90.0125   15.4609 C.3     1  UNL1        0.0022
     31 C          60.4333   92.3770    2.5554 C.ar    1  UNL1        0.0000
     32 C          59.2662   93.1009    1.9521 C.ar    1  UNL1        0.0001
     33 C          59.4312   93.8438    0.6594 C.ar    1  UNL1        0.0035
     34 C          60.7633   93.8627   -0.0299 C.ar    1  UNL1        0.0444
     35 C          61.9304   93.1388    0.5734 C.ar    1  UNL1        0.0035
     36 C          61.7653   92.3960    1.8660 C.ar    1  UNL1        0.0001
     37 C          60.9283   94.6056   -1.3225 C.2     1  UNL1        0.2354
     38 N          60.5448   94.1036   -2.6831 N.2     1  UNL1       -0.0360
     39 C          60.8853   95.1686   -3.6830 C.2     1  UNL1        0.3657
     40 N          61.4792   96.3288   -2.9404 N.2     1  UNL1       -0.0406
     41 C          61.5057   95.9808   -1.4816 C.3     1  UNL1        0.3584
     42 CL         62.0195   96.8546   -0.3760 Cl      1  UNL1       -0.0503
     43 C          60.6698   95.0876   -5.1652 C.3     1  UNL1        0.1874
     44 C          61.6979   95.3634   -6.2220 C.3     1  UNL1        0.0344
     45 C          61.0518   95.1629   -7.5608 C.3     1  UNL1        0.0238
     46 C          59.6243   94.7633   -7.3314 C.3     1  UNL1        0.0940
     47 N          59.3882   94.7168   -5.8508 N.am    1  UNL1       -0.2691
     48 C          58.0972   94.3617   -5.1746 C.2     1  UNL1        0.2440
     49 O          58.0112   94.3578   -3.6771 O.2     1  UNL1       -0.2731
     50 C          56.8922   94.0106   -5.9960 C.3     1  UNL1        0.1512
     51 N          55.9346   95.0845   -6.4201 N.am    1  UNL1       -0.2640
     52 C          54.9361   95.6282   -5.4416 C.2     1  UNL1        0.4021
     53 O          54.8952   95.0980   -4.0390 O.2     1  UNL1       -0.2264
     54 H          55.9615   95.4325   -7.3406 H       1  UNL1        0.1532
     55 O          53.9786   96.7020   -5.8657 O.3     1  UNL1       -0.4306
     56 C          52.8361   96.3703   -6.7792 C.3     1  UNL1        0.2573
     57 C          56.6447   92.5854   -6.3933 C.3     1  UNL1        0.0270
     58 C          55.5781   91.7887   -5.7025 C.3     1  UNL1        0.0022
     59 C          57.4639   91.9572   -7.4816 C.3     1  UNL1        0.0022
@<TRIPOS>BOND
     1    26    27    1
     2    27    22    1
     3    22    23    2
     4    22    24   am
     5    21    24    1
     6    21    14    1
     7    14    15    2
     8    14    16   am
     9    16    17    1
    10    17    18    1
    11    18    19    1
    12    19    20    1
    13    20     7    1
    14     7     8   ar
    15     8     9   ar
    16     9    10    1
    17     9    11   ar
    18    11     1    1
    19     1     2   ar
    20     2     3   ar
    21     3     4   ar
    22     4    31    1
    23    31    32   ar
    24    32    33   ar
    25    33    34   ar
    26    34    37    1
    27    37    38    2
    28    38    39    1
    29    43    39    1
    30    43    44    1
    31    44    45    1
    32    45    46    1
    33    46    47    1
    34    47    48   am
    35    48    49    2
    36    48    50    1
    37    50    51    1
    38    51    52   am
    39    52    53    2
    40    52    55    1
    41    55    56    1
    42    50    57    1
    43    57    58    1
    44    57    59    1
    45    39    40    2
    46    40    41    1
    47    41    42    1
    48    34    35   ar
    49    35    36   ar
    50     4     5   ar
    51     5     6   ar
    52    11    12   ar
    53    21    28    1
    54    28    29    1
    55    28    30    1
    56    20    16    1
    57    12     7   ar
    58     6     1   ar
    59    36    31   ar
    60    41    37    1
    61    47    43    1
    62    24    25    1
    63    51    54    1
    64    12    13    1
@<TRIPOS>MOLECULE
*****
 59 64 0 0 0
SMALL
GASTEIGER

@<TRIPOS>ATOM
      1 C          60.3383   90.2003    6.5423 C.ar    1  UNL1        0.0180
      2 C          61.5593   90.5176    5.7308 C.ar    1  UNL1        0.0015
      3 C          61.4211   91.2100    4.4074 C.ar    1  UNL1        0.0000
      4 C          60.0620   91.5852    3.8955 C.ar    1  UNL1        0.0000
      5 C          58.8410   91.2679    4.7070 C.ar    1  UNL1        0.0000
      6 C          58.9792   90.5755    6.0304 C.ar    1  UNL1        0.0015
      7 C          61.2705   88.8844   10.0729 C.ar    1  UNL1        0.1363
      8 N          60.1076   88.0004    9.7317 N.ar    1  UNL1       -0.2181
      9 C          59.6169   88.3857    8.3677 C.ar    1  UNL1        0.1551
     10 CL         58.4683   87.7590    7.6343 Cl      1  UNL1       -0.0598
     11 C          60.4764   89.5079    7.8657 C.ar    1  UNL1        0.0863
     12 N          61.4984   89.8160    8.9196 N.ar    1  UNL1       -0.3388
     13 H          62.1963   90.5083    8.8641 H       1  UNL1        0.1672
     14 C          62.6311   86.2319   11.4003 C.2     1  UNL1        0.2439
     15 O          61.8938   85.9643   10.1217 O.2     1  UNL1       -0.2731
     16 N          62.6911   87.6246   11.9542 N.am    1  UNL1       -0.2730
     17 C          63.3871   88.0425   13.2155 C.3     1  UNL1        0.0939
     18 C          63.1919   89.5201   13.3848 C.3     1  UNL1        0.0237
     19 C          62.3752   90.0153   12.2282 C.3     1  UNL1        0.0293
     20 C          62.0657   88.8438   11.3440 C.3     1  UNL1        0.1319
     21 C          63.3084   85.1067   12.1251 C.3     1  UNL1        0.1512
     22 C          63.1880   85.0622   14.7200 C.2     1  UNL1        0.4021
     23 O          61.7882   84.5284   14.6460 O.2     1  UNL1       -0.2264
     24 N          63.9481   85.3514   13.4596 N.am    1  UNL1       -0.2640
     25 H          64.8668   85.7018   13.5082 H       1  UNL1        0.1532
     26 C          63.0743   86.0403   17.1243 C.3     1  UNL1        0.2573
     27 O          63.8278   85.3070   16.0544 O.3     1  UNL1       -0.4306
     28 C          63.3459   83.7367   11.5154 C.3     1  UNL1        0.0270
     29 C          64.3749   83.4067   10.4751 C.3     1  UNL1        0.0022
     30 C          62.3544   82.6966   11.9459 C.3     1  UNL1        0.0022
     31 C          59.9239   92.2776    2.5720 C.ar    1  UNL1        0.0000
     32 C          58.5747   92.4037    1.9287 C.ar    1  UNL1        0.0001
     33 C          58.4366   93.0961    0.6052 C.ar    1  UNL1        0.0035
     34 C          59.6477   93.6625   -0.0749 C.ar    1  UNL1        0.0444
     35 C          60.9969   93.5364    0.5685 C.ar    1  UNL1        0.0035
     36 C          61.1349   92.8440    1.8919 C.ar    1  UNL1        0.0001
     37 C          59.5096   94.3549   -1.3983 C.2     1  UNL1        0.2354
     38 N          59.5790   93.7015   -2.7467 N.2     1  UNL1       -0.0360
     39 C          59.3902   94.7651   -3.7874 C.2     1  UNL1        0.3657
     40 N          59.2040   96.0759   -3.0822 N.2     1  UNL1       -0.0406
     41 C          59.2778   95.8223   -1.6056 C.3     1  UNL1        0.3584
     42 CL         59.1435   96.8549   -0.5260 Cl      1  UNL1       -0.0503
     43 C          59.3879   94.5549   -5.2726 C.3     1  UNL1        0.1874
     44 C          60.6000   94.4239   -6.1464 C.3     1  UNL1        0.0344
     45 C          60.1343   94.2268   -7.5586 C.3     1  UNL1        0.0238
     46 C          58.6344   94.2360   -7.5575 C.3     1  UNL1        0.0940
     47 N          58.1730   94.4388   -6.1447 N.am    1  UNL1       -0.2691
     48 C          56.7472   94.5125   -5.6848 C.2     1  UNL1        0.2440
     49 O          56.4375   94.7200   -4.2319 O.2     1  UNL1       -0.2731
     50 C          55.6310   94.3786   -6.6779 C.3     1  UNL1        0.1512
     51 N          55.1586   93.0179   -7.0966 N.am    1  UNL1       -0.2640
     52 C          55.6670   91.7969   -6.3889 C.2     1  UNL1        0.4021
     53 O          56.6477   91.9367   -5.2626 O.2     1  UNL1       -0.2264
     54 H          54.5150   92.9262   -7.8358 H       1  UNL1        0.1532
     55 O          55.1947   90.4362   -6.8076 O.3     1  UNL1       -0.4306
     56 C          54.0072   89.8144   -6.1344 C.3     1  UNL1        0.2573
     57 C          54.9870   95.6056   -7.2524 C.3     1  UNL1        0.0270
     58 C          55.8190   96.8151   -7.5600 C.3     1  UNL1        0.0022
     59 C          53.5110   95.6230   -7.5191 C.3     1  UNL1        0.0022
@<TRIPOS>BOND
     1    26    27    1
     2    27    22    1
     3    22    23    2
     4    22    24   am
     5    21    24    1
     6    21    14    1
     7    14    15    2
     8    14    16   am
     9    16    17    1
    10    17    18    1
    11    18    19    1
    12    19    20    1
    13    20     7    1
    14     7     8   ar
    15     8     9   ar
    16     9    10    1
    17     9    11   ar
    18    11     1    1
    19     1     2   ar
    20     2     3   ar
    21     3     4   ar
    22     4    31    1
    23    31    32   ar
    24    32    33   ar
    25    33    34   ar
    26    34    37    1
    27    37    38    2
    28    38    39    1
    29    43    39    1
    30    43    44    1
    31    44    45    1
    32    45    46    1
    33    46    47    1
    34    47    48   am
    35    48    49    2
    36    48    50    1
    37    50    51    1
    38    51    52   am
    39    52    53    2
    40    52    55    1
    41    55    56    1
    42    50    57    1
    43    57    58    1
    44    57    59    1
    45    39    40    2
    46    40    41    1
    47    41    42    1
    48    34    35   ar
    49    35    36   ar
    50     4     5   ar
    51     5     6   ar
    52    11    12   ar
    53    21    28    1
    54    28    29    1
    55    28    30    1
    56    20    16    1
    57    12     7   ar
    58     6     1   ar
    59    36    31   ar
    60    41    37    1
    61    47    43    1
    62    24    25    1
    63    51    54    1
    64    12    13    1
@<TRIPOS>MOLECULE
*****
 59 64 0 0 0
SMALL
GASTEIGER

@<TRIPOS>ATOM
      1 C          60.8950   88.8462    8.5035 C.ar    1  UNL1        0.0180
      2 C          61.7384   90.0655    8.2755 C.ar    1  UNL1        0.0015
      3 C          61.5330   90.9003    7.0464 C.ar    1  UNL1        0.0000
      4 C          60.4842   90.5158    6.0452 C.ar    1  UNL1        0.0000
      5 C          59.6409   89.2965    6.2732 C.ar    1  UNL1        0.0000
      6 C          59.8463   88.4617    7.5023 C.ar    1  UNL1        0.0015
      7 C          62.1129   86.9968   11.6914 C.ar    1  UNL1        0.1363
      8 N          60.7201   86.4562   11.5569 N.ar    1  UNL1       -0.2181
      9 C          60.0944   87.0832   10.3464 C.ar    1  UNL1        0.1551
     10 CL         58.7064   86.8270    9.8387 Cl      1  UNL1       -0.0598
     11 C          61.1004   88.0112    9.7327 C.ar    1  UNL1        0.0863
     12 N          62.3479   87.9579   10.5640 N.ar    1  UNL1       -0.3388
     13 H          63.1756   88.4647   10.3986 H       1  UNL1        0.1672
     14 C          63.5881   89.0889   13.7153 C.2     1  UNL1        0.2439
     15 O          62.6504   89.7399   12.7423 O.2     1  UNL1       -0.2731
     16 N          63.7757   87.6008   13.6951 N.am    1  UNL1       -0.2730
     17 C          64.6744   86.8131   14.6017 C.3     1  UNL1        0.0939
     18 C          64.5517   85.3646   14.2317 C.3     1  UNL1        0.0237
     19 C          63.5772   85.2572   13.0964 C.3     1  UNL1        0.0293
     20 C          63.0977   86.6392   12.7648 C.3     1  UNL1        0.1319
     21 C          64.3383   89.9259   14.7086 C.3     1  UNL1        0.1512
     22 C          65.8699   91.6471   13.5077 C.2     1  UNL1        0.4021
     23 O          64.6586   92.3502   12.9707 O.2     1  UNL1       -0.2264
     24 N          65.7097   90.4349   14.3766 N.am    1  UNL1       -0.2640
     25 H          66.5047   89.9734   14.7291 H       1  UNL1        0.1532
     26 C          68.2878   92.2449   14.2468 C.3     1  UNL1        0.2573
     27 O          67.2413   92.1559   13.1758 O.3     1  UNL1       -0.4306
     28 C          63.7171   90.2540   16.0338 C.3     1  UNL1        0.0270
     29 C          63.8353   91.6400   16.5951 C.3     1  UNL1        0.0022
     30 C          62.9775   89.1961   16.7980 C.3     1  UNL1        0.0022
     31 C          60.2789   91.3507    4.8161 C.ar    1  UNL1        0.0000
     32 C          61.4479   91.7033    3.9449 C.ar    1  UNL1        0.0001
     33 C          61.2425   92.5382    2.7157 C.ar    1  UNL1        0.0035
     34 C          59.8681   93.0205    2.3578 C.ar    1  UNL1        0.0444
     35 C          58.6990   92.6680    3.2290 C.ar    1  UNL1        0.0035
     36 C          58.9044   91.8331    4.4581 C.ar    1  UNL1        0.0001
     37 C          59.6627   93.8554    1.1286 C.2     1  UNL1        0.2354
     38 N          58.3979   93.9489    0.3275 N.2     1  UNL1       -0.0360
     39 C          58.6395   94.8947   -0.8114 C.2     1  UNL1        0.3657
     40 N          60.0536   95.3856   -0.7142 N.2     1  UNL1       -0.0406
     41 C          60.6859   94.7433    0.4848 C.3     1  UNL1        0.3584
     42 CL         62.0942   94.9523    0.9571 Cl      1  UNL1       -0.0503
     43 C          57.6422   95.2815   -1.8629 C.3     1  UNL1        0.1874
     44 C          56.8455   96.5519   -1.8975 C.3     1  UNL1        0.0344
     45 C          55.9774   96.5214   -3.1204 C.3     1  UNL1        0.0238
     46 C          56.2376   95.2322   -3.8416 C.3     1  UNL1        0.0940
     47 N          57.2666   94.4658   -3.0644 N.am    1  UNL1       -0.2691
     48 C          57.8223   93.1201   -3.4253 C.2     1  UNL1        0.2440
     49 O          58.8519   92.4737   -2.5467 O.2     1  UNL1       -0.2731
     50 C          57.3483   92.4209   -4.6649 C.3     1  UNL1        0.1512
     51 N          56.6846   91.0797   -4.5622 N.am    1  UNL1       -0.2640
     52 C          55.8118   90.7630   -3.3841 C.2     1  UNL1        0.4021
     53 O          55.6028   91.7875   -2.3086 O.2     1  UNL1       -0.2264
     54 H          56.8217   90.4073   -5.2681 H       1  UNL1        0.1532
     55 O          55.1481   89.4218   -3.2814 O.3     1  UNL1       -0.4306
     56 C          54.1555   88.9945   -4.3216 C.3     1  UNL1        0.2573
     57 C          57.5381   93.0630   -6.0072 C.3     1  UNL1        0.0270
     58 C          56.4863   92.9127   -7.0659 C.3     1  UNL1        0.0022
     59 C          58.7798   93.8554   -6.2907 C.3     1  UNL1        0.0022
@<TRIPOS>BOND
     1    26    27    1
     2    27    22    1
     3    22    23    2
     4    22    24   am
     5    21    24    1
     6    21    14    1
     7    14    15    2
     8    14    16   am
     9    16    17    1
    10    17    18    1
    11    18    19    1
    12    19    20    1
    13    20     7    1
    14     7     8   ar
    15     8     9   ar
    16     9    10    1
    17     9    11   ar
    18    11     1    1
    19     1     2   ar
    20     2     3   ar
    21     3     4   ar
    22     4    31    1
    23    31    32   ar
    24    32    33   ar
    25    33    34   ar
    26    34    37    1
    27    37    38    2
    28    38    39    1
    29    43    39    1
    30    43    44    1
    31    44    45    1
    32    45    46    1
    33    46    47    1
    34    47    48   am
    35    48    49    2
    36    48    50    1
    37    50    51    1
    38    51    52   am
    39    52    53    2
    40    52    55    1
    41    55    56    1
    42    50    57    1
    43    57    58    1
    44    57    59    1
    45    39    40    2
    46    40    41    1
    47    41    42    1
    48    34    35   ar
    49    35    36   ar
    50     4     5   ar
    51     5     6   ar
    52    11    12   ar
    53    21    28    1
    54    28    29    1
    55    28    30    1
    56    20    16    1
    57    12     7   ar
    58     6     1   ar
    59    36    31   ar
    60    41    37    1
    61    47    43    1
    62    24    25    1
    63    51    54    1
    64    12    13    1
@<TRIPOS>MOLECULE
*****
 59 64 0 0 0
SMALL
GASTEIGER

@<TRIPOS>ATOM
      1 C          60.9413   88.9186    8.4267 C.ar    1  UNL1        0.0180
      2 C          59.9377   88.5340    7.3804 C.ar    1  UNL1        0.0015
      3 C          59.7795   89.3745    6.1482 C.ar    1  UNL1        0.0000
      4 C          60.6248   90.5996    5.9622 C.ar    1  UNL1        0.0000
      5 C          61.6284   90.9842    7.0086 C.ar    1  UNL1        0.0000
      6 C          61.7866   90.1437    8.2408 C.ar    1  UNL1        0.0015
      7 C          62.0498   87.0253   11.6287 C.ar    1  UNL1        0.1363
      8 N          60.6366   86.5442   11.4821 N.ar    1  UNL1       -0.2181
      9 C          60.0493   87.1949   10.2648 C.ar    1  UNL1        0.1551
     10 CL         58.6564   86.9971    9.7446 Cl      1  UNL1       -0.0598
     11 C          61.0996   88.0781    9.6591 C.ar    1  UNL1        0.0863
     12 N          62.3359   87.9733   10.5020 N.ar    1  UNL1       -0.3388
     13 H          63.1859   88.4441   10.3435 H       1  UNL1        0.1672
     14 C          63.5554   89.0525   13.6957 C.2     1  UNL1        0.2439
     15 O          62.6507   89.7405   12.7169 O.2     1  UNL1       -0.2731
     16 N          63.7005   87.5599   13.6619 N.am    1  UNL1       -0.2730
     17 C          64.5632   86.7371   14.5722 C.3     1  UNL1        0.0939
     18 C          64.4043   85.2968   14.1847 C.3     1  UNL1        0.0237
     19 C          63.4434   85.2294   13.0349 C.3     1  UNL1        0.0293
     20 C          63.0085   86.6281   12.7118 C.3     1  UNL1        0.1319
     21 C          64.3151   89.8571   14.7085 C.3     1  UNL1        0.1512
     22 C          65.9077   91.5793   13.5916 C.2     1  UNL1        0.4021
     23 O          64.7226   92.3509   13.0915 O.2     1  UNL1       -0.2264
     24 N          65.7040   90.3324   14.4001 N.am    1  UNL1       -0.2640
     25 H          66.4818   89.8259   14.7283 H       1  UNL1        0.1532
     26 C          68.1946   92.5168   14.3923 C.3     1  UNL1        0.2573
     27 O          67.2966   92.0545   13.2832 O.3     1  UNL1       -0.4306
     28 C          63.6858   90.1863   16.0297 C.3     1  UNL1        0.0270
     29 C          63.7948   91.5746   16.5872 C.3     1  UNL1        0.0022
     30 C          62.9474   89.1273   16.7935 C.3     1  UNL1        0.0022
     31 C          60.4665   91.4401    4.7299 C.ar    1  UNL1        0.0000
     32 C          59.1188   91.9868    4.3629 C.ar    1  UNL1        0.0001
     33 C          58.9605   92.8273    3.1306 C.ar    1  UNL1        0.0035
     34 C          60.1500   93.1211    2.2653 C.ar    1  UNL1        0.0444
     35 C          61.4978   92.5744    2.6324 C.ar    1  UNL1        0.0035
     36 C          61.6561   91.7340    3.8646 C.ar    1  UNL1        0.0001
     37 C          59.9918   93.9616    1.0330 C.2     1  UNL1        0.2354
     38 N          59.9525   93.4573   -0.3791 N.2     1  UNL1       -0.0360
     39 C          59.7815   94.6379   -1.2884 C.2     1  UNL1        0.3657
     40 N          59.7151   95.8720   -0.4381 N.2     1  UNL1       -0.0406
     41 C          59.8451   95.4539    0.9965 C.3     1  UNL1        0.3584
     42 CL         59.8308   96.3678    2.1859 Cl      1  UNL1       -0.0503
     43 C          59.6926   94.5926   -2.7850 C.3     1  UNL1        0.1874
     44 C          60.8514   94.5870   -3.7374 C.3     1  UNL1        0.0344
     45 C          60.3042   94.5358   -5.1330 C.3     1  UNL1        0.0238
     46 C          58.8071   94.5098   -5.0432 C.3     1  UNL1        0.0940
     47 N          58.4291   94.5449   -3.5921 N.am    1  UNL1       -0.2691
     48 C          57.0328   94.5341   -3.0442 C.2     1  UNL1        0.2440
     49 O          56.8085   94.5731   -1.5616 O.2     1  UNL1       -0.2731
     50 C          55.8607   94.4844   -3.9790 C.3     1  UNL1        0.1512
     51 N          55.8124   93.4532   -5.0672 N.am    1  UNL1       -0.2640
     52 C          55.9050   91.9959   -4.7241 C.2     1  UNL1        0.4021
     53 O          56.0459   91.5698   -3.2929 O.2     1  UNL1       -0.2264
     54 H          55.7199   93.7328   -6.0066 H       1  UNL1        0.1532
     55 O          55.8567   90.9647   -5.8124 O.3     1  UNL1       -0.4306
     56 C          55.5403   91.3741   -7.2202 C.3     1  UNL1        0.2573
     57 C          54.7369   95.4660   -3.8256 C.3     1  UNL1        0.0270
     58 C          53.9743   95.5376   -2.5359 C.3     1  UNL1        0.0022
     59 C          54.3756   96.3761   -4.9620 C.3     1  UNL1        0.0022
@<TRIPOS>BOND
     1    26    27    1
     2    27    22    1
     3    22    23    2
     4    22    24   am
     5    21    24    1
     6    21    14    1
     7    14    15    2
     8    14    16   am
     9    16    17    1
    10    17    18    1
    11    18    19    1
    12    19    20    1
    13    20     7    1
    14     7     8   ar
    15     8     9   ar
    16     9    10    1
    17     9    11   ar
    18    11     1    1
    19     1     2   ar
    20     2     3   ar
    21     3     4   ar
    22     4    31    1
    23    31    32   ar
    24    32    33   ar
    25    33    34   ar
    26    34    37    1
    27    37    38    2
    28    38    39    1
    29    43    39    1
    30    43    44    1
    31    44    45    1
    32    45    46    1
    33    46    47    1
    34    47    48   am
    35    48    49    2
    36    48    50    1
    37    50    51    1
    38    51    52   am
    39    52    53    2
    40    52    55    1
    41    55    56    1
    42    50    57    1
    43    57    58    1
    44    57    59    1
    45    39    40    2
    46    40    41    1
    47    41    42    1
    48    34    35   ar
    49    35    36   ar
    50     4     5   ar
    51     5     6   ar
    52    11    12   ar
    53    21    28    1
    54    28    29    1
    55    28    30    1
    56    20    16    1
    57    12     7   ar
    58     6     1   ar
    59    36    31   ar
    60    41    37    1
    61    47    43    1
    62    24    25    1
    63    51    54    1
    64    12    13    1
@<TRIPOS>MOLECULE
*****
 59 64 0 0 0
SMALL
GASTEIGER

@<TRIPOS>ATOM
      1 C          60.8986   88.8730    8.5055 C.ar    1  UNL1        0.0180
      2 C          61.7247   90.1063    8.2903 C.ar    1  UNL1        0.0015
      3 C          61.5246   90.9374    7.0578 C.ar    1  UNL1        0.0000
      4 C          60.4984   90.5351    6.0404 C.ar    1  UNL1        0.0000
      5 C          59.6723   89.3018    6.2555 C.ar    1  UNL1        0.0000
      6 C          59.8724   88.4707    7.4881 C.ar    1  UNL1        0.0015
      7 C          62.1040   87.0306   11.7021 C.ar    1  UNL1        0.1363
      8 N          60.7092   86.4952   11.5675 N.ar    1  UNL1       -0.2181
      9 C          60.0880   87.1202   10.3536 C.ar    1  UNL1        0.1551
     10 CL         58.6997   86.8677    9.8447 Cl      1  UNL1       -0.0598
     11 C          61.0987   88.0418    9.7381 C.ar    1  UNL1        0.0863
     12 N          62.3446   87.9865   10.5715 N.ar    1  UNL1       -0.3388
     13 H          63.1746   88.4892   10.4055 H       1  UNL1        0.1672
     14 C          63.5956   89.1255   13.7109 C.2     1  UNL1        0.2439
     15 O          62.6634   89.7769   12.7329 O.2     1  UNL1       -0.2731
     16 N          63.7712   87.6359   13.7017 N.am    1  UNL1       -0.2730
     17 C          64.6634   86.8476   14.6143 C.3     1  UNL1        0.0939
     18 C          64.5290   85.3975   14.2549 C.3     1  UNL1        0.0237
     19 C          63.5539   85.2895   13.1203 C.3     1  UNL1        0.0293
     20 C          63.0856   86.6729   12.7784 C.3     1  UNL1        0.1319
     21 C          64.3524   89.9638   14.6983 C.3     1  UNL1        0.1512
     22 C          65.8876   91.6869   13.5049 C.2     1  UNL1        0.4021
     23 O          64.6775   92.4070   12.9880 O.2     1  UNL1       -0.2264
     24 N          65.7250   90.4652   14.3600 N.am    1  UNL1       -0.2640
     25 H          66.5192   89.9926   14.6993 H       1  UNL1        0.1532
     26 C          68.2524   92.4531   14.2601 C.3     1  UNL1        0.2573
     27 O          67.2602   92.1883   13.1668 O.3     1  UNL1       -0.4306
     28 C          63.7364   90.3005   16.0238 C.3     1  UNL1        0.0270
     29 C          62.9090   89.2798   16.7474 C.3     1  UNL1        0.0022
     30 C          63.9477   91.6581   16.6259 C.3     1  UNL1        0.0022
     31 C          60.2984   91.3663    4.8078 C.ar    1  UNL1        0.0000
     32 C          61.4698   91.7086    3.9358 C.ar    1  UNL1        0.0001
     33 C          61.2698   92.5398    2.7031 C.ar    1  UNL1        0.0035
     34 C          59.8982   93.0286    2.3426 C.ar    1  UNL1        0.0444
     35 C          58.7267   92.6862    3.2148 C.ar    1  UNL1        0.0035
     36 C          58.9268   91.8551    4.4473 C.ar    1  UNL1        0.0001
     37 C          59.6981   93.8597    1.1101 C.2     1  UNL1        0.2354
     38 N          58.4059   94.0435    0.3709 N.2     1  UNL1       -0.0360
     39 C          58.6642   94.9504   -0.7957 C.2     1  UNL1        0.3657
     40 N          60.1161   95.3270   -0.7774 N.2     1  UNL1       -0.0406
     41 C          60.7550   94.6529    0.4004 C.3     1  UNL1        0.3584
     42 CL         62.1976   94.7543    0.7987 Cl      1  UNL1       -0.0503
     43 C          57.6490   95.4014   -1.8036 C.3     1  UNL1        0.1874
     44 C          56.8173   96.6469   -1.7206 C.3     1  UNL1        0.0344
     45 C          55.9415   96.7014   -2.9371 C.3     1  UNL1        0.0238
     46 C          56.2320   95.4895   -3.7720 C.3     1  UNL1        0.0940
     47 N          57.2873   94.6861   -3.0714 N.am    1  UNL1       -0.2691
     48 C          57.8773   93.3942   -3.5540 C.2     1  UNL1        0.2440
     49 O          58.9307   92.7010   -2.7418 O.2     1  UNL1       -0.2731
     50 C          57.4138   92.7954   -4.8489 C.3     1  UNL1        0.1512
     51 N          58.0421   93.2251   -6.1414 N.am    1  UNL1       -0.2640
     52 C          59.2399   94.1279   -6.1294 C.2     1  UNL1        0.4021
     53 O          59.8095   94.6010   -4.8248 O.2     1  UNL1       -0.2264
     54 H          57.6683   92.9146   -6.9976 H       1  UNL1        0.1532
     55 O          59.8683   94.5575   -7.4219 O.3     1  UNL1       -0.4306
     56 C          61.3618   94.5830   -7.5578 C.3     1  UNL1        0.2573
     57 C          56.3218   91.7669   -4.8513 C.3     1  UNL1        0.0270
     58 C          55.9736   91.0398   -3.5865 C.3     1  UNL1        0.0022
     59 C          55.5781   91.4656   -6.1187 C.3     1  UNL1        0.0022
@<TRIPOS>BOND
     1    26    27    1
     2    27    22    1
     3    22    23    2
     4    22    24   am
     5    21    24    1
     6    21    14    1
     7    14    15    2
     8    14    16   am
     9    16    17    1
    10    17    18    1
    11    18    19    1
    12    19    20    1
    13    20     7    1
    14     7     8   ar
    15     8     9   ar
    16     9    10    1
    17     9    11   ar
    18    11     1    1
    19     1     2   ar
    20     2     3   ar
    21     3     4   ar
    22     4    31    1
    23    31    32   ar
    24    32    33   ar
    25    33    34   ar
    26    34    37    1
    27    37    38    2
    28    38    39    1
    29    43    39    1
    30    43    44    1
    31    44    45    1
    32    45    46    1
    33    46    47    1
    34    47    48   am
    35    48    49    2
    36    48    50    1
    37    50    51    1
    38    51    52   am
    39    52    53    2
    40    52    55    1
    41    55    56    1
    42    50    57    1
    43    57    58    1
    44    57    59    1
    45    39    40    2
    46    40    41    1
    47    41    42    1
    48    34    35   ar
    49    35    36   ar
    50     4     5   ar
    51     5     6   ar
    52    11    12   ar
    53    21    28    1
    54    28    29    1
    55    28    30    1
    56    20    16    1
    57    12     7   ar
    58     6     1   ar
    59    36    31   ar
    60    41    37    1
    61    47    43    1
    62    24    25    1
    63    51    54    1
    64    12    13    1
