@<TRIPOS>MOLECULE
*****
 37 39 0 0 0
SMALL
GASTEIGER

@<TRIPOS>ATOM
      1 N          63.8928   90.6826   13.5739 N.am    1  UNL1       -0.2770
      2 C          62.7182   90.1475   12.8098 C.2     1  UNL1        0.2253
      3 O          61.7171   89.2648   13.4945 O.2     1  UNL1       -0.2749
      4 C          62.5446   90.4950   11.3609 C.3     1  UNL1        0.0746
      5 C          61.3377   89.6285   11.5674 C.3     1  UNL1        0.0095
      6 C          63.5457   91.3776   10.6762 C.3     1  UNL1        0.0153
      7 C          64.7203   91.9127   11.4404 C.3     1  UNL1        0.0452
      8 C          64.8938   91.5652   12.8892 C.3     1  UNL1        0.1018
      9 C          65.7214   92.7954   10.7556 C.ar    1  UNL1       -0.0197
     10 C          65.4472   94.2621   10.6025 C.ar    1  UNL1       -0.0042
     11 C          66.4483   95.1448    9.9178 C.ar    1  UNL1        0.0005
     12 C          67.7236   94.5606    9.3863 C.ar    1  UNL1        0.0114
     13 C          67.9977   93.0938    9.5394 C.ar    1  UNL1        0.0574
     14 CL         69.2729   92.5097    9.0079 Cl      1  UNL1       -0.0823
     15 C          66.9966   92.2112   10.2241 C.ar    1  UNL1        0.0072
     16 C          66.0685   92.1003   13.6533 C.ar    1  UNL1       -0.0039
     17 C          67.1634   91.1734   14.0916 C.ar    1  UNL1       -0.0018
     18 C          68.3381   91.7085   14.8556 C.ar    1  UNL1        0.0111
     19 C          68.4179   93.1706   15.1815 C.ar    1  UNL1        0.0577
     20 CL         69.5925   93.7056   15.9456 Cl      1  UNL1       -0.0822
     21 C          67.3230   94.0975   14.7432 C.ar    1  UNL1        0.0111
     22 C          66.1483   93.5623   13.9791 C.ar    1  UNL1       -0.0018
     23 C          64.0664   90.3350   15.0227 C.3     1  UNL1        0.0991
     24 C          64.4362   92.1410   16.8535 C.3     1  UNL1        0.0018
     25 C          63.5154   91.2420   16.0828 C.3     1  UNL1        0.0216
     26 C          64.7909   89.0805   15.4115 C.3     1  UNL1        0.1703
     27 S          64.0160   87.8600   15.8110 S.O2    1  UNL1       -0.0115
     28 O          63.3598   88.6374   16.9133 O.2     1  UNL1       -0.1730
     29 O          64.6721   87.0826   14.7086 O.2     1  UNL1       -0.1730
     30 C          63.2410   86.6394   16.2105 C.3     1  UNL1        0.1108
     31 C          62.6524   87.3917   17.3670 C.3     1  UNL1        0.0236
     32 C          63.8295   85.8871   15.0539 C.3     1  UNL1        0.0236
     33 C          62.4660   85.4188   16.6100 C.3     1  UNL1        0.0236
     34 C          61.9518   90.5416    9.9839 C.3     1  UNL1        0.0503
     35 C          61.3878   89.2956    9.3676 C.2     1  UNL1        0.0508
     36 O          60.0608   89.3386    8.6697 O.co2   1  UNL1       -0.5492
     37 O          62.1509   88.0069    9.4493 O.co2   1  UNL1       -0.5492
@<TRIPOS>UNITY_ATOM_ATTR
36 1
charge -1
@<TRIPOS>BOND
     1    24    25    1
     2    23    25    1
     3    23    26    1
     4    26    27    1
     5    27    28    2
     6    27    29    2
     7    27    30    1
     8    30    31    1
     9    30    32    1
    10    30    33    1
    11    23     1    1
    12     1     2   am
    13     2     3    2
    14     2     4    1
    15     4     5    1
    16     4    34    1
    17    34    35    1
    18    35    36   ar
    19    35    37   ar
    20     4     6    1
    21     6     7    1
    22     7     9    1
    23     9    10   ar
    24    10    11   ar
    25    11    12   ar
    26    12    13   ar
    27    13    14    1
    28    13    15   ar
    29     7     8    1
    30     8    16    1
    31    16    17   ar
    32    17    18   ar
    33    18    19   ar
    34    19    20    1
    35    19    21   ar
    36    21    22   ar
    37     8     1    1
    38    22    16   ar
    39    15     9   ar
@<TRIPOS>MOLECULE
*****
 37 39 0 0 0
SMALL
GASTEIGER

@<TRIPOS>ATOM
      1 N          63.7252   85.9042   13.1605 N.am    1  UNL1       -0.2770
      2 C          63.7010   87.3349   13.6103 C.2     1  UNL1        0.2253
      3 O          64.2436   87.7066   14.9585 O.2     1  UNL1       -0.2749
      4 C          63.1343   88.3941   12.7120 C.3     1  UNL1        0.0746
      5 C          63.5274   89.2349   13.8902 C.3     1  UNL1        0.0095
      6 C          62.5917   88.0225   11.3638 C.3     1  UNL1        0.0153
      7 C          62.6158   86.5917   10.9141 C.3     1  UNL1        0.0452
      8 C          63.1826   85.5326   11.8124 C.3     1  UNL1        0.1018
      9 C          62.0732   86.2200    9.5659 C.ar    1  UNL1       -0.0197
     10 C          62.9317   85.4666    8.5936 C.ar    1  UNL1       -0.0042
     11 C          62.3891   85.0950    7.2454 C.ar    1  UNL1        0.0005
     12 C          60.9880   85.4768    6.8696 C.ar    1  UNL1        0.0114
     13 C          60.1295   86.2302    7.8420 C.ar    1  UNL1        0.0574
     14 CL         58.7285   86.6120    7.4662 Cl      1  UNL1       -0.0823
     15 C          60.6722   86.6018    9.1901 C.ar    1  UNL1        0.0072
     16 C          63.2068   84.1018   11.3625 C.ar    1  UNL1       -0.0039
     17 C          61.9622   83.2685   11.4451 C.ar    1  UNL1       -0.0018
     18 C          61.9863   81.8378   10.9953 C.ar    1  UNL1        0.0111
     19 C          63.2550   81.2402   10.4629 C.ar    1  UNL1        0.0577
     20 CL         63.2791   79.8095   10.0131 Cl      1  UNL1       -0.0822
     21 C          64.4996   82.0735   10.3803 C.ar    1  UNL1        0.0111
     22 C          64.4754   83.5043   10.8301 C.ar    1  UNL1       -0.0018
     23 C          64.2920   84.8450   14.0588 C.3     1  UNL1        0.0991
     24 C          66.6465   85.4101   15.0004 C.3     1  UNL1        0.0018
     25 C          65.7716   84.6008   14.0897 C.3     1  UNL1        0.0216
     26 C          63.3791   84.0301   14.9263 C.3     1  UNL1        0.1703
     27 S          63.0344   82.6228   14.5384 S.O2    1  UNL1       -0.0115
     28 O          61.6028   82.8706   14.9115 O.2     1  UNL1       -0.1730
     29 O          64.4660   82.3750   14.1654 O.2     1  UNL1       -0.1730
     30 C          62.6897   81.2154   14.1505 C.3     1  UNL1        0.1108
     31 C          61.2396   81.4996   14.4079 C.3     1  UNL1        0.0236
     32 C          64.1399   80.9312   13.8931 C.3     1  UNL1        0.0236
     33 C          62.3450   79.8080   13.7626 C.3     1  UNL1        0.0236
     34 C          62.7041   89.7452   12.2229 C.3     1  UNL1        0.0503
     35 C          61.2766   89.9797   11.8262 C.2     1  UNL1        0.0508
     36 O          60.1667   89.6080   12.7643 O.co2   1  UNL1       -0.5492
     37 O          60.9590   90.5858   10.4914 O.co2   1  UNL1       -0.5492
@<TRIPOS>UNITY_ATOM_ATTR
36 1
charge -1
@<TRIPOS>BOND
     1    24    25    1
     2    23    25    1
     3    23    26    1
     4    26    27    1
     5    27    28    2
     6    27    29    2
     7    27    30    1
     8    30    31    1
     9    30    32    1
    10    30    33    1
    11    23     1    1
    12     1     2   am
    13     2     3    2
    14     2     4    1
    15     4     5    1
    16     4    34    1
    17    34    35    1
    18    35    36   ar
    19    35    37   ar
    20     4     6    1
    21     6     7    1
    22     7     9    1
    23     9    10   ar
    24    10    11   ar
    25    11    12   ar
    26    12    13   ar
    27    13    14    1
    28    13    15   ar
    29     7     8    1
    30     8    16    1
    31    16    17   ar
    32    17    18   ar
    33    18    19   ar
    34    19    20    1
    35    19    21   ar
    36    21    22   ar
    37     8     1    1
    38    22    16   ar
    39    15     9   ar
@<TRIPOS>MOLECULE
*****
 37 39 0 0 0
SMALL
GASTEIGER

@<TRIPOS>ATOM
      1 N          63.5313   85.2305   12.5914 N.am    1  UNL1       -0.2770
      2 C          64.1607   85.4580   13.9338 C.2     1  UNL1        0.2253
      3 O          64.7573   84.3063   14.6873 O.2     1  UNL1       -0.2749
      4 C          64.1936   86.8371   14.5227 C.3     1  UNL1        0.0746
      5 C          64.8850   86.0722   15.6121 C.3     1  UNL1        0.0095
      6 C          63.5970   87.9888   13.7693 C.3     1  UNL1        0.0153
      7 C          62.9676   87.7613   12.4269 C.3     1  UNL1        0.0452
      8 C          62.9347   86.3821   11.8380 C.3     1  UNL1        0.1018
      9 C          62.3710   88.9130   11.6734 C.ar    1  UNL1       -0.0197
     10 C          63.1797   89.6269   10.6312 C.ar    1  UNL1       -0.0042
     11 C          62.5831   90.7786    9.8777 C.ar    1  UNL1        0.0005
     12 C          61.1777   91.2163   10.1664 C.ar    1  UNL1        0.0114
     13 C          60.3689   90.5022   11.2086 C.ar    1  UNL1        0.0574
     14 CL         58.9636   90.9399   11.4972 Cl      1  UNL1       -0.0823
     15 C          60.9656   89.3506   11.9620 C.ar    1  UNL1        0.0072
     16 C          62.3052   86.1546   10.4955 C.ar    1  UNL1       -0.0039
     17 C          63.1305   85.6256    9.3602 C.ar    1  UNL1       -0.0018
     18 C          62.5011   85.3981    8.0178 C.ar    1  UNL1        0.0111
     19 C          61.0464   85.6997    7.8107 C.ar    1  UNL1        0.0577
     20 CL         60.4170   85.4722    6.4683 Cl      1  UNL1       -0.0822
     21 C          60.2211   86.2288    8.9460 C.ar    1  UNL1        0.0111
     22 C          60.8506   86.4562   10.2885 C.ar    1  UNL1       -0.0018
     23 C          63.4984   83.8513   12.0025 C.3     1  UNL1        0.0991
     24 C          64.5888   82.5781   10.0176 C.3     1  UNL1        0.0018
     25 C          64.7176   83.2939   11.3295 C.3     1  UNL1        0.0216
     26 C          62.2465   83.0295   12.0867 C.3     1  UNL1        0.1703
     27 S          62.2230   81.7814   12.9184 S.O2    1  UNL1       -0.0115
     28 O          62.4396   80.9555   11.6852 O.2     1  UNL1       -0.1730
     29 O          62.0064   82.6074   14.1517 O.2     1  UNL1       -0.1730
     30 C          62.1996   80.5334   13.7502 C.3     1  UNL1        0.1108
     31 C          63.6771   80.3714   13.5487 C.3     1  UNL1        0.0236
     32 C          60.7220   80.6954   13.9516 C.3     1  UNL1        0.0236
     33 C          62.1761   79.2853   14.5819 C.3     1  UNL1        0.0236
     34 C          64.4666   87.9506   15.4900 C.3     1  UNL1        0.0503
     35 C          63.3466   88.5292   16.3030 C.2     1  UNL1        0.0508
     36 O          63.1821   90.0169   16.4013 O.co2   1  UNL1       -0.5492
     37 O          62.3913   87.6202   17.0177 O.co2   1  UNL1       -0.5492
@<TRIPOS>UNITY_ATOM_ATTR
36 1
charge -1
@<TRIPOS>BOND
     1    24    25    1
     2    23    25    1
     3    23    26    1
     4    26    27    1
     5    27    28    2
     6    27    29    2
     7    27    30    1
     8    30    31    1
     9    30    32    1
    10    30    33    1
    11    23     1    1
    12     1     2   am
    13     2     3    2
    14     2     4    1
    15     4     5    1
    16     4    34    1
    17    34    35    1
    18    35    36   ar
    19    35    37   ar
    20     4     6    1
    21     6     7    1
    22     7     9    1
    23     9    10   ar
    24    10    11   ar
    25    11    12   ar
    26    12    13   ar
    27    13    14    1
    28    13    15   ar
    29     7     8    1
    30     8    16    1
    31    16    17   ar
    32    17    18   ar
    33    18    19   ar
    34    19    20    1
    35    19    21   ar
    36    21    22   ar
    37     8     1    1
    38    22    16   ar
    39    15     9   ar
@<TRIPOS>MOLECULE
*****
 37 39 0 0 0
SMALL
GASTEIGER

@<TRIPOS>ATOM
      1 N          63.0838   90.1946   11.9261 N.am    1  UNL1       -0.2770
      2 C          63.2815   91.0529   10.7119 C.2     1  UNL1        0.2253
      3 O          62.4683   90.8032    9.4764 O.2     1  UNL1       -0.2749
      4 C          64.2925   92.1608   10.7331 C.3     1  UNL1        0.0746
      5 C          63.7669   92.3144    9.3366 C.3     1  UNL1        0.0095
      6 C          65.1057   92.4105   11.9685 C.3     1  UNL1        0.0153
      7 C          64.9080   91.5523   13.1827 C.3     1  UNL1        0.0452
      8 C          63.8971   90.4443   13.1615 C.3     1  UNL1        0.1018
      9 C          65.7213   91.8019   14.4182 C.ar    1  UNL1       -0.0197
     10 C          65.0363   92.0649   15.7265 C.ar    1  UNL1       -0.0042
     11 C          65.8496   92.3146   16.9620 C.ar    1  UNL1        0.0005
     12 C          67.3478   92.3012   16.8891 C.ar    1  UNL1        0.0114
     13 C          68.0327   92.0382   15.5807 C.ar    1  UNL1        0.0574
     14 CL         69.5308   92.0248   15.5078 Cl      1  UNL1       -0.0823
     15 C          67.2194   91.7886   14.3453 C.ar    1  UNL1        0.0072
     16 C          63.6994   89.5860   14.3757 C.ar    1  UNL1       -0.0039
     17 C          62.8802   90.0915   15.5261 C.ar    1  UNL1       -0.0018
     18 C          62.6825   89.2333   16.7403 C.ar    1  UNL1        0.0111
     19 C          63.3040   87.8695   16.8042 C.ar    1  UNL1        0.0577
     20 CL         63.1063   87.0113   18.0184 Cl      1  UNL1       -0.0822
     21 C          64.1232   87.3641   15.6538 C.ar    1  UNL1        0.0111
     22 C          64.3208   88.2223   14.4395 C.ar    1  UNL1       -0.0018
     23 C          62.0729   89.0867   11.9048 C.3     1  UNL1        0.0991
     24 C          59.7823   90.2470   11.5090 C.3     1  UNL1        0.0018
     25 C          60.6600   89.3522   12.3329 C.3     1  UNL1        0.0216
     26 C          62.4748   87.7132   11.4555 C.3     1  UNL1        0.1703
     27 S          61.8327   87.1021   10.2454 S.O2    1  UNL1       -0.0115
     28 O          61.0108   86.2127   11.1306 O.2     1  UNL1       -0.1730
     29 O          62.6546   87.9915    9.3602 O.2     1  UNL1       -0.1730
     30 C          61.1906   86.4910    9.0353 C.3     1  UNL1        0.1108
     31 C          59.9241   87.2387    9.3298 C.3     1  UNL1        0.0236
     32 C          62.4572   85.7433    8.7409 C.3     1  UNL1        0.0236
     33 C          60.5486   85.8799    7.8252 C.3     1  UNL1        0.0236
     34 C          65.1208   93.3221   10.2693 C.3     1  UNL1        0.0503
     35 C          66.6163   93.2646   10.3708 C.2     1  UNL1        0.0508
     36 O          67.3775   94.4410   10.9062 O.co2   1  UNL1       -0.5492
     37 O          67.3506   92.0307    9.9370 O.co2   1  UNL1       -0.5492
@<TRIPOS>UNITY_ATOM_ATTR
36 1
charge -1
@<TRIPOS>BOND
     1    24    25    1
     2    23    25    1
     3    23    26    1
     4    26    27    1
     5    27    28    2
     6    27    29    2
     7    27    30    1
     8    30    31    1
     9    30    32    1
    10    30    33    1
    11    23     1    1
    12     1     2   am
    13     2     3    2
    14     2     4    1
    15     4     5    1
    16     4    34    1
    17    34    35    1
    18    35    36   ar
    19    35    37   ar
    20     4     6    1
    21     6     7    1
    22     7     9    1
    23     9    10   ar
    24    10    11   ar
    25    11    12   ar
    26    12    13   ar
    27    13    14    1
    28    13    15   ar
    29     7     8    1
    30     8    16    1
    31    16    17   ar
    32    17    18   ar
    33    18    19   ar
    34    19    20    1
    35    19    21   ar
    36    21    22   ar
    37     8     1    1
    38    22    16   ar
    39    15     9   ar
@<TRIPOS>MOLECULE
*****
 37 39 0 0 0
SMALL
GASTEIGER

@<TRIPOS>ATOM
      1 N          59.4606   94.0717   -3.2560 N.am    1  UNL1       -0.2770
      2 C          59.6115   94.4328   -4.7040 C.2     1  UNL1        0.2253
      3 O          58.4838   94.1825   -5.6609 O.2     1  UNL1       -0.2749
      4 C          60.8902   95.0442   -5.1952 C.3     1  UNL1        0.0746
      5 C          60.1127   95.0010   -6.4773 C.3     1  UNL1        0.0095
      6 C          62.0178   95.2945   -4.2383 C.3     1  UNL1        0.0153
      7 C          61.8669   94.9334   -2.7903 C.3     1  UNL1        0.0452
      8 C          60.5883   94.3220   -2.2992 C.3     1  UNL1        0.1018
      9 C          62.9946   95.1837   -1.8334 C.ar    1  UNL1       -0.0197
     10 C          63.4742   96.5838   -1.5891 C.ar    1  UNL1       -0.0042
     11 C          64.6019   96.8341   -0.6322 C.ar    1  UNL1        0.0005
     12 C          65.2500   95.6843    0.0804 C.ar    1  UNL1        0.0114
     13 C          64.7704   94.2841   -0.1639 C.ar    1  UNL1        0.0574
     14 CL         65.4185   93.1343    0.5487 Cl      1  UNL1       -0.0823
     15 C          63.6427   94.0339   -1.1208 C.ar    1  UNL1        0.0072
     16 C          60.4373   93.9609   -0.8511 C.ar    1  UNL1       -0.0039
     17 C          60.5622   92.5303   -0.4179 C.ar    1  UNL1       -0.0018
     18 C          60.4113   92.1691    1.0301 C.ar    1  UNL1        0.0111
     19 C          60.1355   93.2387    2.0451 C.ar    1  UNL1        0.0577
     20 CL         59.9846   92.8776    3.4931 Cl      1  UNL1       -0.0822
     21 C          60.0106   94.6694    1.6119 C.ar    1  UNL1        0.0111
     22 C          60.1616   95.0305    0.1638 C.ar    1  UNL1       -0.0018
     23 C          58.1819   93.4603   -2.7648 C.3     1  UNL1        0.0991
     24 C          56.8045   91.7886   -4.1995 C.3     1  UNL1        0.0018
     25 C          57.8325   92.0504   -3.1390 C.3     1  UNL1        0.0216
     26 C          57.2527   94.2588   -1.8995 C.3     1  UNL1        0.1703
     27 S          55.9912   94.8273   -2.4787 S.O2    1  UNL1       -0.0115
     28 O          55.1885   93.7952   -1.7436 O.2     1  UNL1       -0.1730
     29 O          56.7939   95.8594   -3.2138 O.2     1  UNL1       -0.1730
     30 C          54.7297   95.3959   -3.0579 C.3     1  UNL1        0.1108
     31 C          54.1394   95.4878   -1.6820 C.3     1  UNL1        0.0236
     32 C          55.3200   95.3039   -4.4338 C.3     1  UNL1        0.0236
     33 C          53.4683   95.9644   -3.6371 C.3     1  UNL1        0.0236
     34 C          61.8987   95.6406   -6.1317 C.3     1  UNL1        0.0503
     35 C          63.1276   94.8648   -6.5035 C.2     1  UNL1        0.0508
     36 O          64.4595   95.5522   -6.5614 O.co2   1  UNL1       -0.5492
     37 O          63.0245   93.4017   -6.8173 O.co2   1  UNL1       -0.5492
@<TRIPOS>UNITY_ATOM_ATTR
36 1
charge -1
@<TRIPOS>BOND
     1    24    25    1
     2    23    25    1
     3    23    26    1
     4    26    27    1
     5    27    28    2
     6    27    29    2
     7    27    30    1
     8    30    31    1
     9    30    32    1
    10    30    33    1
    11    23     1    1
    12     1     2   am
    13     2     3    2
    14     2     4    1
    15     4     5    1
    16     4    34    1
    17    34    35    1
    18    35    36   ar
    19    35    37   ar
    20     4     6    1
    21     6     7    1
    22     7     9    1
    23     9    10   ar
    24    10    11   ar
    25    11    12   ar
    26    12    13   ar
    27    13    14    1
    28    13    15   ar
    29     7     8    1
    30     8    16    1
    31    16    17   ar
    32    17    18   ar
    33    18    19   ar
    34    19    20    1
    35    19    21   ar
    36    21    22   ar
    37     8     1    1
    38    22    16   ar
    39    15     9   ar
@<TRIPOS>MOLECULE
*****
 37 39 0 0 0
SMALL
GASTEIGER

@<TRIPOS>ATOM
      1 N          59.8216   94.5805   -3.4773 N.am    1  UNL1       -0.2770
      2 C          60.1035   95.0350   -4.8787 C.2     1  UNL1        0.2253
      3 O          59.0427   94.9181   -5.9328 O.2     1  UNL1       -0.2749
      4 C          61.4462   95.6063   -5.2260 C.3     1  UNL1        0.0746
      5 C          60.7702   95.6991   -6.5618 C.3     1  UNL1        0.0095
      6 C          62.5070   95.7232   -4.1720 C.3     1  UNL1        0.0153
      7 C          62.2251   95.2687   -2.7706 C.3     1  UNL1        0.0452
      8 C          60.8824   94.6973   -2.4233 C.3     1  UNL1        0.1018
      9 C          63.2859   95.3855   -1.7165 C.ar    1  UNL1       -0.0197
     10 C          63.7852   96.7377   -1.3016 C.ar    1  UNL1       -0.0042
     11 C          64.8461   96.8546   -0.2475 C.ar    1  UNL1        0.0005
     12 C          65.4075   95.6191    0.3916 C.ar    1  UNL1        0.0114
     13 C          64.9082   94.2669   -0.0233 C.ar    1  UNL1        0.0574
     14 CL         65.4696   93.0315    0.6158 Cl      1  UNL1       -0.0823
     15 C          63.8474   94.1501   -1.0774 C.ar    1  UNL1        0.0072
     16 C          60.6005   94.2428   -1.0218 C.ar    1  UNL1       -0.0039
     17 C          60.1774   95.2373    0.0183 C.ar    1  UNL1       -0.0018
     18 C          59.8955   94.7829    1.4197 C.ar    1  UNL1        0.0111
     19 C          60.0367   93.3338    1.7811 C.ar    1  UNL1        0.0577
     20 CL         59.7548   92.8794    3.1825 Cl      1  UNL1       -0.0822
     21 C          60.4598   92.3393    0.7409 C.ar    1  UNL1        0.0111
     22 C          60.7417   92.7939   -0.6606 C.ar    1  UNL1       -0.0018
     23 C          58.4789   94.0091   -3.1299 C.3     1  UNL1        0.0991
     24 C          56.7085   94.8155   -1.4079 C.3     1  UNL1        0.0018
     25 C          57.3479   94.9225   -2.7606 C.3     1  UNL1        0.0216
     26 C          58.2671   92.5243   -3.1520 C.3     1  UNL1        0.1703
     27 S          57.1592   91.9368   -3.9750 S.O2    1  UNL1       -0.0115
     28 O          57.8765   92.3408   -5.2289 O.2     1  UNL1       -0.1730
     29 O          56.4419   91.5329   -2.7210 O.2     1  UNL1       -0.1730
     30 C          56.0513   91.3494   -4.7980 C.3     1  UNL1        0.1108
     31 C          55.5898   90.5568   -3.6110 C.3     1  UNL1        0.0236
     32 C          56.5127   92.1419   -5.9849 C.3     1  UNL1        0.0236
     33 C          54.9433   90.7619   -5.6210 C.3     1  UNL1        0.0236
     34 C          62.5541   96.2099   -6.0374 C.3     1  UNL1        0.0503
     35 C          63.7242   95.3681   -6.4524 C.2     1  UNL1        0.0508
     36 O          65.0958   95.9715   -6.5198 O.co2   1  UNL1       -0.5492
     37 O          63.5227   93.9229   -6.7998 O.co2   1  UNL1       -0.5492
@<TRIPOS>UNITY_ATOM_ATTR
36 1
charge -1
@<TRIPOS>BOND
     1    24    25    1
     2    23    25    1
     3    23    26    1
     4    26    27    1
     5    27    28    2
     6    27    29    2
     7    27    30    1
     8    30    31    1
     9    30    32    1
    10    30    33    1
    11    23     1    1
    12     1     2   am
    13     2     3    2
    14     2     4    1
    15     4     5    1
    16     4    34    1
    17    34    35    1
    18    35    36   ar
    19    35    37   ar
    20     4     6    1
    21     6     7    1
    22     7     9    1
    23     9    10   ar
    24    10    11   ar
    25    11    12   ar
    26    12    13   ar
    27    13    14    1
    28    13    15   ar
    29     7     8    1
    30     8    16    1
    31    16    17   ar
    32    17    18   ar
    33    18    19   ar
    34    19    20    1
    35    19    21   ar
    36    21    22   ar
    37     8     1    1
    38    22    16   ar
    39    15     9   ar
@<TRIPOS>MOLECULE
*****
 37 39 0 0 0
SMALL
GASTEIGER

@<TRIPOS>ATOM
      1 N          62.6855   88.1034   12.5366 N.am    1  UNL1       -0.2770
      2 C          63.1395   88.3974   13.9357 C.2     1  UNL1        0.2253
      3 O          63.1315   89.8079   14.4460 O.2     1  UNL1       -0.2749
      4 C          63.6016   87.2808   14.8244 C.3     1  UNL1        0.0746
      5 C          63.7749   88.4439   15.7557 C.3     1  UNL1        0.0095
      6 C          63.6096   85.8704   14.3141 C.3     1  UNL1        0.0153
      7 C          63.1555   85.5764   12.9151 C.3     1  UNL1        0.0452
      8 C          62.6935   86.6929   12.0263 C.3     1  UNL1        0.1018
      9 C          63.1635   84.1659   12.4047 C.ar    1  UNL1       -0.0197
     10 C          63.9142   83.8260   11.1514 C.ar    1  UNL1       -0.0042
     11 C          63.9222   82.4155   10.6410 C.ar    1  UNL1        0.0005
     12 C          63.1795   81.3448   11.3841 C.ar    1  UNL1        0.0114
     13 C          62.4288   81.6848   12.6375 C.ar    1  UNL1        0.0574
     14 CL         61.6861   80.6141   13.3806 Cl      1  UNL1       -0.0823
     15 C          62.4208   83.0952   13.1478 C.ar    1  UNL1        0.0072
     16 C          62.2395   86.3989   10.6272 C.ar    1  UNL1       -0.0039
     17 C          63.2402   86.0072    9.5807 C.ar    1  UNL1       -0.0018
     18 C          62.7862   85.7132    8.1816 C.ar    1  UNL1        0.0111
     19 C          61.3315   85.8108    7.8290 C.ar    1  UNL1        0.0577
     20 CL         60.8775   85.5168    6.4300 Cl      1  UNL1       -0.0822
     21 C          60.3308   86.2025    8.8755 C.ar    1  UNL1        0.0111
     22 C          60.7848   86.4966   10.2746 C.ar    1  UNL1       -0.0018
     23 C          62.2235   89.2199   11.6478 C.3     1  UNL1        0.0991
     24 C          60.1039   90.1512   10.4689 C.3     1  UNL1        0.0018
     25 C          60.8015   89.6926   11.7151 C.3     1  UNL1        0.0216
     26 C          63.1834   89.8638   10.6919 C.3     1  UNL1        0.1703
     27 S          63.9975   91.0456   11.1284 S.O2    1  UNL1       -0.0115
     28 O          64.5454   90.2454   12.2728 O.2     1  UNL1       -0.1730
     29 O          63.4496   91.8457    9.9841 O.2     1  UNL1       -0.1730
     30 C          64.8116   92.2274   11.5650 C.3     1  UNL1        0.1108
     31 C          64.7413   92.7890   10.1759 C.3     1  UNL1        0.0236
     32 C          64.8819   91.6658   12.9541 C.3     1  UNL1        0.0236
     33 C          65.6257   93.4092   12.0016 C.3     1  UNL1        0.0236
     34 C          64.1238   86.5683   16.0367 C.3     1  UNL1        0.0503
     35 C          63.1672   85.9693   17.0247 C.2     1  UNL1        0.0508
     36 O          62.4190   84.7160   16.6792 O.co2   1  UNL1       -0.5492
     37 O          62.9587   86.6237   18.3582 O.co2   1  UNL1       -0.5492
@<TRIPOS>UNITY_ATOM_ATTR
36 1
charge -1
@<TRIPOS>BOND
     1    24    25    1
     2    23    25    1
     3    23    26    1
     4    26    27    1
     5    27    28    2
     6    27    29    2
     7    27    30    1
     8    30    31    1
     9    30    32    1
    10    30    33    1
    11    23     1    1
    12     1     2   am
    13     2     3    2
    14     2     4    1
    15     4     5    1
    16     4    34    1
    17    34    35    1
    18    35    36   ar
    19    35    37   ar
    20     4     6    1
    21     6     7    1
    22     7     9    1
    23     9    10   ar
    24    10    11   ar
    25    11    12   ar
    26    12    13   ar
    27    13    14    1
    28    13    15   ar
    29     7     8    1
    30     8    16    1
    31    16    17   ar
    32    17    18   ar
    33    18    19   ar
    34    19    20    1
    35    19    21   ar
    36    21    22   ar
    37     8     1    1
    38    22    16   ar
    39    15     9   ar
@<TRIPOS>MOLECULE
*****
 37 39 0 0 0
SMALL
GASTEIGER

@<TRIPOS>ATOM
      1 N          63.6129   85.9070   12.9553 N.am    1  UNL1       -0.2770
      2 C          64.2956   84.5885   13.1685 C.2     1  UNL1        0.2253
      3 O          65.0892   84.3483   14.4186 O.2     1  UNL1       -0.2749
      4 C          64.1848   83.5102   12.1317 C.3     1  UNL1        0.0746
      5 C          65.0434   82.8112   13.1437 C.3     1  UNL1        0.0095
      6 C          63.3913   83.7504   10.8816 C.3     1  UNL1        0.0153
      7 C          62.7086   85.0689   10.6685 C.3     1  UNL1        0.0452
      8 C          62.8194   86.1472   11.7053 C.3     1  UNL1        0.1018
      9 C          61.9151   85.3091    9.4184 C.ar    1  UNL1       -0.0197
     10 C          60.6458   86.1063    9.4773 C.ar    1  UNL1       -0.0042
     11 C          59.8522   86.3465    8.2273 C.ar    1  UNL1        0.0005
     12 C          60.3280   85.7896    6.9183 C.ar    1  UNL1        0.0114
     13 C          61.5973   84.9924    6.8594 C.ar    1  UNL1        0.0574
     14 CL         62.0731   84.4355    5.5504 Cl      1  UNL1       -0.0823
     15 C          62.3908   84.7522    8.1094 C.ar    1  UNL1        0.0072
     16 C          62.1367   87.4657   11.4921 C.ar    1  UNL1       -0.0039
     17 C          60.7427   87.6798   12.0030 C.ar    1  UNL1       -0.0018
     18 C          60.0600   88.9982   11.7898 C.ar    1  UNL1        0.0111
     19 C          60.7711   90.1027   11.0656 C.ar    1  UNL1        0.0577
     20 CL         60.0884   91.4211   10.8524 Cl      1  UNL1       -0.0822
     21 C          62.1651   89.8886   10.5546 C.ar    1  UNL1        0.0111
     22 C          62.8478   88.5701   10.7679 C.ar    1  UNL1       -0.0018
     23 C          63.7237   86.9853   13.9922 C.3     1  UNL1        0.0991
     24 C          62.6596   85.8640   16.0803 C.3     1  UNL1        0.0018
     25 C          63.7871   86.6236   15.4465 C.3     1  UNL1        0.0216
     26 C          63.7712   88.4252   13.5746 C.3     1  UNL1        0.1703
     27 S          63.8950   89.5028   14.6107 S.O2    1  UNL1       -0.0115
     28 O          62.4113   89.7182   14.5640 O.2     1  UNL1       -0.1730
     29 O          65.3787   89.2874   14.6574 O.2     1  UNL1       -0.1730
     30 C          64.0188   90.5804   15.6467 C.3     1  UNL1        0.1108
     31 C          64.9290   91.3508   14.7367 C.3     1  UNL1        0.0236
     32 C          63.1087   89.8101   16.5568 C.3     1  UNL1        0.0236
     33 C          64.1427   91.6581   16.6828 C.3     1  UNL1        0.0236
     34 C          64.3723   82.1892   11.4464 C.3     1  UNL1        0.0503
     35 C          63.2418   81.2046   11.3936 C.2     1  UNL1        0.0508
     36 O          62.3437   81.0295   12.5822 O.co2   1  UNL1       -0.5492
     37 O          63.0094   80.3952   10.1524 O.co2   1  UNL1       -0.5492
@<TRIPOS>UNITY_ATOM_ATTR
36 1
charge -1
@<TRIPOS>BOND
     1    24    25    1
     2    23    25    1
     3    23    26    1
     4    26    27    1
     5    27    28    2
     6    27    29    2
     7    27    30    1
     8    30    31    1
     9    30    32    1
    10    30    33    1
    11    23     1    1
    12     1     2   am
    13     2     3    2
    14     2     4    1
    15     4     5    1
    16     4    34    1
    17    34    35    1
    18    35    36   ar
    19    35    37   ar
    20     4     6    1
    21     6     7    1
    22     7     9    1
    23     9    10   ar
    24    10    11   ar
    25    11    12   ar
    26    12    13   ar
    27    13    14    1
    28    13    15   ar
    29     7     8    1
    30     8    16    1
    31    16    17   ar
    32    17    18   ar
    33    18    19   ar
    34    19    20    1
    35    19    21   ar
    36    21    22   ar
    37     8     1    1
    38    22    16   ar
    39    15     9   ar
