@<TRIPOS>MOLECULE
*****
 33 38 0 0 0
SMALL
GASTEIGER

@<TRIPOS>ATOM
      1 N          63.5379   91.1879   11.3385 N.pl3   1  UNL1       -0.3046
      2 C          62.8578   90.9367   10.0254 C.3     1  UNL1        0.1081
      3 C          61.7318   89.9492    9.9409 C.3     1  UNL1        0.0938
      4 N          61.2860   89.2130   11.1694 N.3     1  UNL1       -0.2695
      5 C          61.9663   89.4643   12.4825 C.3     1  UNL1        0.0938
      6 C          63.0922   90.4517   12.5671 C.3     1  UNL1        0.1081
      7 C          68.1863   92.3006   16.2786 C.3     1  UNL1        0.0521
      8 C          67.3057   92.2693   15.0647 C.ar    1  UNL1        0.0593
      9 C          66.1798   91.2818   14.9802 C.ar    1  UNL1        0.0148
     10 C          65.2992   91.2505   13.7663 C.ar    1  UNL1        0.0039
     11 C          65.5445   92.2067   12.6369 C.ar    1  UNL1        0.0310
     12 C          64.6639   92.1754   11.4230 C.ar    1  UNL1        0.0493
     13 C          64.9092   93.1316   10.2936 C.ar    1  UNL1        0.0146
     14 C          66.0352   94.1190   10.3781 C.ar    1  UNL1        0.0028
     15 C          66.9158   94.1503   11.5920 C.ar    1  UNL1        0.0192
     16 C          66.6705   93.1942   12.7214 C.ar    1  UNL1        0.0821
     17 N          67.5511   93.2255   13.9353 N.ar    1  UNL1       -0.2496
     18 C          60.1601   88.2255   11.0849 C.3     1  UNL1        0.0770
     19 C          59.9366   87.4492    9.8210 C.3     1  UNL1        0.0468
     20 C          60.9647   86.4606    9.3564 C.ar    1  UNL1        0.0147
     21 C          61.1953   86.2521    7.8890 C.ar    1  UNL1       -0.0011
     22 C          62.2233   85.2635    7.4245 C.ar    1  UNL1        0.0014
     23 C          63.0207   84.4834    8.4273 C.ar    1  UNL1        0.0223
     24 C          62.7901   84.6919    9.8947 C.ar    1  UNL1        0.1177
     25 C          61.7621   85.6805   10.3592 C.ar    1  UNL1        0.1527
     26 O          61.5314   85.8891   11.8267 O.3     1  UNL1       -0.4677
     27 C          62.3288   85.1090   12.8295 C.3     1  UNL1        0.2522
     28 C          63.3569   84.1204   12.3649 C.ar    1  UNL1        0.1210
     29 C          64.2879   83.2137   13.1140 C.ar    1  UNL1        0.0996
     30 C          64.3942   83.0965   14.6056 C.3     1  UNL1        0.0555
     31 N          65.0939   82.4448   12.1094 N.ar    1  UNL1       -0.1331
     32 N          64.6611   82.8763   10.7396 N.ar    1  UNL1       -0.0600
     33 N          63.5875   83.9119   10.8975 N.ar    1  UNL1       -0.2083
@<TRIPOS>BOND
     1     7     8    1
     2     8     9   ar
     3     9    10   ar
     4    10    11   ar
     5    11    12   ar
     6    12     1    1
     7     1     2    1
     8     2     3    1
     9     3     4    1
    10     4    18    1
    11    18    19    1
    12    19    20    1
    13    20    21   ar
    14    21    22   ar
    15    22    23   ar
    16    23    24   ar
    17    24    25   ar
    18    25    26    1
    19    26    27    1
    20    27    28    1
    21    28    29   ar
    22    29    30    1
    23    29    31   ar
    24    31    32   ar
    25    32    33   ar
    26     4     5    1
    27     5     6    1
    28    12    13   ar
    29    13    14   ar
    30    14    15   ar
    31    15    16   ar
    32    16    17   ar
    33    17     8   ar
    34    16    11   ar
    35     6     1    1
    36    25    20   ar
    37    33    28   ar
    38    33    24    1
@<TRIPOS>MOLECULE
*****
 33 38 0 0 0
SMALL
GASTEIGER

@<TRIPOS>ATOM
      1 N          63.1390   90.5480   11.7831 N.pl3   1  UNL1       -0.3046
      2 C          61.8907   90.0877   12.4756 C.3     1  UNL1        0.1081
      3 C          60.7754   89.4741   11.6819 C.3     1  UNL1        0.0938
      4 N          60.9087   89.3208   10.1957 N.3     1  UNL1       -0.2695
      5 C          62.1572   89.7812    9.5032 C.3     1  UNL1        0.0938
      6 C          63.2723   90.3947   10.2969 C.3     1  UNL1        0.1081
      7 C          67.2429   95.8850   10.3958 C.3     1  UNL1        0.0521
      8 C          66.4957   94.7041   10.9410 C.ar    1  UNL1        0.0593
      9 C          65.3806   94.0906   10.1473 C.ar    1  UNL1        0.0148
     10 C          64.6334   92.9097   10.6926 C.ar    1  UNL1        0.0039
     11 C          65.0014   92.3424   12.0315 C.ar    1  UNL1        0.0310
     12 C          64.2542   91.1616   12.5767 C.ar    1  UNL1        0.0493
     13 C          64.6222   90.5943   13.9157 C.ar    1  UNL1        0.0146
     14 C          65.7373   91.2078   14.7094 C.ar    1  UNL1        0.0028
     15 C          66.4845   92.3887   14.1642 C.ar    1  UNL1        0.0192
     16 C          66.1166   92.9560   12.8252 C.ar    1  UNL1        0.0821
     17 N          66.8638   94.1368   12.2800 N.ar    1  UNL1       -0.2496
     18 C          59.7935   88.7073    9.4021 C.3     1  UNL1        0.0770
     19 C          59.5868   87.2218    9.4235 C.3     1  UNL1        0.0468
     20 C          60.6976   86.3039    9.0067 C.ar    1  UNL1        0.0147
     21 C          60.9420   86.0347    7.5515 C.ar    1  UNL1       -0.0011
     22 C          62.0528   85.1168    7.1348 C.ar    1  UNL1        0.0014
     23 C          62.9192   84.4682    8.1733 C.ar    1  UNL1        0.0223
     24 C          62.6748   84.7373    9.6285 C.ar    1  UNL1        0.1177
     25 C          61.5640   85.6552   10.0452 C.ar    1  UNL1        0.1527
     26 O          61.3196   85.9244   11.5006 O.3     1  UNL1       -0.4677
     27 C          62.1860   85.2757   12.5391 C.3     1  UNL1        0.2522
     28 C          63.2969   84.3579   12.1223 C.ar    1  UNL1        0.1210
     29 C          64.3070   83.5809   12.9135 C.ar    1  UNL1        0.0996
     30 C          64.4273   83.5575   14.4085 C.3     1  UNL1        0.0555
     31 N          65.1757   82.8315   11.9472 N.ar    1  UNL1       -0.1331
     32 N          64.7024   83.1453   10.5588 N.ar    1  UNL1       -0.0600
     33 N          63.5412   84.0887   10.6671 N.ar    1  UNL1       -0.2083
@<TRIPOS>BOND
     1     7     8    1
     2     8     9   ar
     3     9    10   ar
     4    10    11   ar
     5    11    12   ar
     6    12     1    1
     7     1     2    1
     8     2     3    1
     9     3     4    1
    10     4    18    1
    11    18    19    1
    12    19    20    1
    13    20    21   ar
    14    21    22   ar
    15    22    23   ar
    16    23    24   ar
    17    24    25   ar
    18    25    26    1
    19    26    27    1
    20    27    28    1
    21    28    29   ar
    22    29    30    1
    23    29    31   ar
    24    31    32   ar
    25    32    33   ar
    26     4     5    1
    27     5     6    1
    28    12    13   ar
    29    13    14   ar
    30    14    15   ar
    31    15    16   ar
    32    16    17   ar
    33    17     8   ar
    34    16    11   ar
    35     6     1    1
    36    25    20   ar
    37    33    28   ar
    38    33    24    1
@<TRIPOS>MOLECULE
*****
 33 38 0 0 0
SMALL
GASTEIGER

@<TRIPOS>ATOM
      1 N          64.3514   89.6428   14.4851 N.pl3   1  UNL1       -0.3046
      2 C          63.4583   89.7773   15.6827 C.3     1  UNL1        0.1081
      3 C          63.0139   88.5538   16.4281 C.3     1  UNL1        0.0938
      4 N          63.4626   87.1958   15.9759 N.3     1  UNL1       -0.2695
      5 C          64.3558   87.0614   14.7782 C.3     1  UNL1        0.0938
      6 C          64.8001   88.2849   14.0329 C.3     1  UNL1        0.1081
      7 C          69.1277   94.3482   16.0005 C.3     1  UNL1        0.0521
      8 C          68.0447   93.4777   15.4353 C.ar    1  UNL1        0.0593
      9 C          67.6004   92.2542   16.1806 C.ar    1  UNL1        0.0148
     10 C          66.5174   91.3838   15.6155 C.ar    1  UNL1        0.0039
     11 C          65.8787   91.7368   14.3050 C.ar    1  UNL1        0.0310
     12 C          64.7957   90.8663   13.7398 C.ar    1  UNL1        0.0493
     13 C          64.1571   91.2194   12.4292 C.ar    1  UNL1        0.0146
     14 C          64.6014   92.4429   11.6839 C.ar    1  UNL1        0.0028
     15 C          65.6844   93.3134   12.2490 C.ar    1  UNL1        0.0192
     16 C          66.3231   92.9603   13.5596 C.ar    1  UNL1        0.0821
     17 N          67.4061   93.8308   14.1247 N.ar    1  UNL1       -0.2496
     18 C          63.0183   85.9723   16.7212 C.3     1  UNL1        0.0770
     19 C          62.2696   84.8880   16.0044 C.3     1  UNL1        0.0468
     20 C          62.9388   84.1134   14.9079 C.ar    1  UNL1        0.0147
     21 C          63.8005   82.9320   15.2423 C.ar    1  UNL1       -0.0011
     22 C          64.4696   82.1575   14.1458 C.ar    1  UNL1        0.0014
     23 C          64.2770   82.5642   12.7149 C.ar    1  UNL1        0.0223
     24 C          63.4153   83.7456   12.3805 C.ar    1  UNL1        0.1177
     25 C          62.7462   84.5201   13.4770 C.ar    1  UNL1        0.1527
     26 O          61.8845   85.7015   13.1426 O.3     1  UNL1       -0.4677
     27 C          61.6919   86.1083   11.7117 C.3     1  UNL1        0.2522
     28 C          62.3611   85.3336   10.6152 C.ar    1  UNL1        0.1210
     29 C          62.3564   85.4968    9.1241 C.ar    1  UNL1        0.0996
     30 C          61.6219   86.5547    8.3552 C.3     1  UNL1        0.0555
     31 N          63.2153   84.4162    8.5370 N.ar    1  UNL1       -0.1331
     32 N          63.7507   83.5853    9.6652 N.ar    1  UNL1       -0.0600
     33 N          63.2228   84.1523   10.9496 N.ar    1  UNL1       -0.2083
@<TRIPOS>BOND
     1     7     8    1
     2     8     9   ar
     3     9    10   ar
     4    10    11   ar
     5    11    12   ar
     6    12     1    1
     7     1     2    1
     8     2     3    1
     9     3     4    1
    10     4    18    1
    11    18    19    1
    12    19    20    1
    13    20    21   ar
    14    21    22   ar
    15    22    23   ar
    16    23    24   ar
    17    24    25   ar
    18    25    26    1
    19    26    27    1
    20    27    28    1
    21    28    29   ar
    22    29    30    1
    23    29    31   ar
    24    31    32   ar
    25    32    33   ar
    26     4     5    1
    27     5     6    1
    28    12    13   ar
    29    13    14   ar
    30    14    15   ar
    31    15    16   ar
    32    16    17   ar
    33    17     8   ar
    34    16    11   ar
    35     6     1    1
    36    25    20   ar
    37    33    28   ar
    38    33    24    1
@<TRIPOS>MOLECULE
*****
 33 38 0 0 0
SMALL
GASTEIGER

@<TRIPOS>ATOM
      1 N          61.4510   92.4065    2.9202 N.pl3   1  UNL1       -0.3046
      2 C          60.0260   92.8043    3.1671 C.3     1  UNL1        0.1081
      3 C          59.2087   92.0706    4.1888 C.3     1  UNL1        0.0938
      4 N          59.8166   90.9392    4.9637 N.3     1  UNL1       -0.2695
      5 C          61.2417   90.5415    4.7168 C.3     1  UNL1        0.0938
      6 C          62.0589   91.2751    3.6951 C.3     1  UNL1        0.1081
      7 C          60.0912   94.0061   -3.6252 C.3     1  UNL1        0.0521
      8 C          60.6354   93.7896   -2.2443 C.ar    1  UNL1        0.0593
      9 C          59.8182   93.0559   -1.2225 C.ar    1  UNL1        0.0148
     10 C          60.3625   92.8395    0.1584 C.ar    1  UNL1        0.0039
     11 C          61.7239   93.3566    0.5176 C.ar    1  UNL1        0.0310
     12 C          62.2682   93.1401    1.8985 C.ar    1  UNL1        0.0493
     13 C          63.6297   93.6573    2.2576 C.ar    1  UNL1        0.0146
     14 C          64.4468   94.3910    1.2359 C.ar    1  UNL1        0.0028
     15 C          63.9026   94.6074   -0.1450 C.ar    1  UNL1        0.0192
     16 C          62.5412   94.0903   -0.5042 C.ar    1  UNL1        0.0821
     17 N          61.9969   94.3068   -1.8851 N.ar    1  UNL1       -0.2496
     18 C          58.9994   90.2056    5.9855 C.3     1  UNL1        0.0770
     19 C          59.4227   90.2048    7.4245 C.3     1  UNL1        0.0468
     20 C          59.8645   88.9277    8.0756 C.ar    1  UNL1        0.0147
     21 C          59.4098   87.6087    7.5248 C.ar    1  UNL1       -0.0011
     22 C          59.8516   86.3317    8.1759 C.ar    1  UNL1        0.0014
     23 C          60.7481   86.3737    9.3779 C.ar    1  UNL1        0.0223
     24 C          61.2027   87.6927    9.9287 C.ar    1  UNL1        0.1177
     25 C          60.7609   88.9697    9.2776 C.ar    1  UNL1        0.1527
     26 O          61.2156   90.2888    9.8284 O.3     1  UNL1       -0.4677
     27 C          62.1120   90.3308   11.0303 C.3     1  UNL1        0.2522
     28 C          62.5538   89.0537   11.6814 C.ar    1  UNL1        0.1210
     29 C          63.4291   88.7832   12.8691 C.ar    1  UNL1        0.0996
     30 C          64.1002   89.8174   13.7236 C.3     1  UNL1        0.0555
     31 N          63.5154   87.2969   13.0524 N.ar    1  UNL1       -0.1331
     32 N          62.6935   86.6489   11.9779 N.ar    1  UNL1       -0.0600
     33 N          62.0991   87.7347   11.1306 N.ar    1  UNL1       -0.2083
@<TRIPOS>BOND
     1     7     8    1
     2     8     9   ar
     3     9    10   ar
     4    10    11   ar
     5    11    12   ar
     6    12     1    1
     7     1     2    1
     8     2     3    1
     9     3     4    1
    10     4    18    1
    11    18    19    1
    12    19    20    1
    13    20    21   ar
    14    21    22   ar
    15    22    23   ar
    16    23    24   ar
    17    24    25   ar
    18    25    26    1
    19    26    27    1
    20    27    28    1
    21    28    29   ar
    22    29    30    1
    23    29    31   ar
    24    31    32   ar
    25    32    33   ar
    26     4     5    1
    27     5     6    1
    28    12    13   ar
    29    13    14   ar
    30    14    15   ar
    31    15    16   ar
    32    16    17   ar
    33    17     8   ar
    34    16    11   ar
    35     6     1    1
    36    25    20   ar
    37    33    28   ar
    38    33    24    1
@<TRIPOS>MOLECULE
*****
 33 38 0 0 0
SMALL
GASTEIGER

@<TRIPOS>ATOM
      1 N          63.4552   88.9580   12.7526 N.pl3   1  UNL1       -0.3046
      2 C          63.3889   90.3944   12.3255 C.3     1  UNL1        0.1081
      3 C          63.9847   91.4631   13.1933 C.3     1  UNL1        0.0938
      4 N          64.6467   91.0955   14.4881 N.3     1  UNL1       -0.2695
      5 C          64.7130   89.6590   14.9151 C.3     1  UNL1        0.0938
      6 C          64.1173   88.5903   14.0474 C.3     1  UNL1        0.1081
      7 C          63.4413   82.1157   13.4103 C.3     1  UNL1        0.0521
      8 C          63.2959   83.5591   13.0289 C.ar    1  UNL1        0.0593
      9 C          63.8916   84.6278   13.8966 C.ar    1  UNL1        0.0148
     10 C          63.7462   86.0712   13.5153 C.ar    1  UNL1        0.0039
     11 C          63.0049   86.4459   12.2663 C.ar    1  UNL1        0.0310
     12 C          62.8595   87.8893   11.8849 C.ar    1  UNL1        0.0493
     13 C          62.1182   88.2640   10.6358 C.ar    1  UNL1        0.0146
     14 C          61.5225   87.1953    9.7681 C.ar    1  UNL1        0.0028
     15 C          61.6679   85.7519   10.1494 C.ar    1  UNL1        0.0192
     16 C          62.4091   85.3772   11.3985 C.ar    1  UNL1        0.0821
     17 N          62.5546   83.9338   11.7798 N.ar    1  UNL1       -0.2496
     18 C          65.2425   92.1641   15.3558 C.3     1  UNL1        0.0770
     19 C          66.2405   93.1260   14.7824 C.3     1  UNL1        0.0468
     20 C          67.0051   92.7639   13.5437 C.ar    1  UNL1        0.0147
     21 C          67.9752   91.6201   13.5686 C.ar    1  UNL1       -0.0011
     22 C          68.7397   91.2581   12.3300 C.ar    1  UNL1        0.0014
     23 C          68.5342   92.0398   11.0664 C.ar    1  UNL1        0.0223
     24 C          67.5642   93.1836   11.0414 C.ar    1  UNL1        0.1177
     25 C          66.7996   93.5456   12.2801 C.ar    1  UNL1        0.1527
     26 O          65.8295   94.6895   12.2552 O.3     1  UNL1       -0.4677
     27 C          65.6240   95.4712   10.9916 C.3     1  UNL1        0.2522
     28 C          66.3886   95.1091    9.7529 C.ar    1  UNL1        0.1210
     29 C          66.3958   95.6930    8.3713 C.ar    1  UNL1        0.0996
     30 C          65.5729   96.8557    7.9012 C.3     1  UNL1        0.0555
     31 N          67.3703   94.9100    7.5423 N.ar    1  UNL1       -0.1331
     32 N          67.9654   93.8423    8.4116 N.ar    1  UNL1       -0.0600
     33 N          67.3587   93.9653    9.7778 N.ar    1  UNL1       -0.2083
@<TRIPOS>BOND
     1     7     8    1
     2     8     9   ar
     3     9    10   ar
     4    10    11   ar
     5    11    12   ar
     6    12     1    1
     7     1     2    1
     8     2     3    1
     9     3     4    1
    10     4    18    1
    11    18    19    1
    12    19    20    1
    13    20    21   ar
    14    21    22   ar
    15    22    23   ar
    16    23    24   ar
    17    24    25   ar
    18    25    26    1
    19    26    27    1
    20    27    28    1
    21    28    29   ar
    22    29    30    1
    23    29    31   ar
    24    31    32   ar
    25    32    33   ar
    26     4     5    1
    27     5     6    1
    28    12    13   ar
    29    13    14   ar
    30    14    15   ar
    31    15    16   ar
    32    16    17   ar
    33    17     8   ar
    34    16    11   ar
    35     6     1    1
    36    25    20   ar
    37    33    28   ar
    38    33    24    1
@<TRIPOS>MOLECULE
*****
 33 38 0 0 0
SMALL
GASTEIGER

@<TRIPOS>ATOM
      1 N          63.4224   88.8981   12.7787 N.pl3   1  UNL1       -0.3046
      2 C          63.3902   90.3142   12.2850 C.3     1  UNL1        0.1081
      3 C          63.9767   91.4133   13.1205 C.3     1  UNL1        0.0938
      4 N          64.5955   91.0963   14.4497 N.3     1  UNL1       -0.2695
      5 C          64.6277   89.6801   14.9433 C.3     1  UNL1        0.0938
      6 C          64.0411   88.5811   14.1079 C.3     1  UNL1        0.1081
      7 C          59.3383   89.1354    7.2548 C.3     1  UNL1        0.0521
      8 C          60.2127   88.8013    8.4269 C.ar    1  UNL1        0.0593
      9 C          60.7992   89.9003    9.2624 C.ar    1  UNL1        0.0148
     10 C          61.6736   89.5663   10.4345 C.ar    1  UNL1        0.0039
     11 C          61.9614   88.1332   10.7711 C.ar    1  UNL1        0.0310
     12 C          62.8358   87.7991   11.9432 C.ar    1  UNL1        0.0493
     13 C          63.1237   86.3659   12.2798 C.ar    1  UNL1        0.0146
     14 C          62.5371   85.2669   11.4444 C.ar    1  UNL1        0.0028
     15 C          61.6627   85.6010   10.2723 C.ar    1  UNL1        0.0192
     16 C          61.3749   87.0341    9.9356 C.ar    1  UNL1        0.0821
     17 N          60.5005   87.3681    8.7635 N.ar    1  UNL1       -0.2496
     18 C          65.1821   92.1953   15.2852 C.3     1  UNL1        0.0770
     19 C          66.1338   93.1783   14.6704 C.3     1  UNL1        0.0468
     20 C          66.9182   92.7996   13.4492 C.ar    1  UNL1        0.0147
     21 C          67.8780   91.6481   13.5015 C.ar    1  UNL1       -0.0011
     22 C          68.6624   91.2694   12.2804 C.ar    1  UNL1        0.0014
     23 C          68.4869   92.0423   11.0068 C.ar    1  UNL1        0.0223
     24 C          67.5271   93.1938   10.9544 C.ar    1  UNL1        0.1177
     25 C          66.7428   93.5724   12.1756 C.ar    1  UNL1        0.1527
     26 O          65.7829   94.7240   12.1233 O.3     1  UNL1       -0.4677
     27 C          65.6074   95.4968   10.8498 C.3     1  UNL1        0.2522
     28 C          66.3919   95.1181    9.6285 C.ar    1  UNL1        0.1210
     29 C          66.4296   95.6904    8.2425 C.ar    1  UNL1        0.0996
     30 C          65.6254   96.8559    7.7477 C.3     1  UNL1        0.0555
     31 N          67.4127   94.8926    7.4383 N.ar    1  UNL1       -0.1331
     32 N          67.9826   93.8272    8.3272 N.ar    1  UNL1       -0.0600
     33 N          67.3517   93.9666    9.6809 N.ar    1  UNL1       -0.2083
@<TRIPOS>BOND
     1     7     8    1
     2     8     9   ar
     3     9    10   ar
     4    10    11   ar
     5    11    12   ar
     6    12     1    1
     7     1     2    1
     8     2     3    1
     9     3     4    1
    10     4    18    1
    11    18    19    1
    12    19    20    1
    13    20    21   ar
    14    21    22   ar
    15    22    23   ar
    16    23    24   ar
    17    24    25   ar
    18    25    26    1
    19    26    27    1
    20    27    28    1
    21    28    29   ar
    22    29    30    1
    23    29    31   ar
    24    31    32   ar
    25    32    33   ar
    26     4     5    1
    27     5     6    1
    28    12    13   ar
    29    13    14   ar
    30    14    15   ar
    31    15    16   ar
    32    16    17   ar
    33    17     8   ar
    34    16    11   ar
    35     6     1    1
    36    25    20   ar
    37    33    28   ar
    38    33    24    1
@<TRIPOS>MOLECULE
*****
 33 38 0 0 0
SMALL
GASTEIGER

@<TRIPOS>ATOM
      1 N          61.1468   92.3922    2.9953 N.pl3   1  UNL1       -0.3046
      2 C          59.7467   92.7738    3.3748 C.3     1  UNL1        0.1081
      3 C          59.0641   92.0814    4.5171 C.3     1  UNL1        0.0938
      4 N          59.7816   91.0074    5.2798 N.3     1  UNL1       -0.2695
      5 C          61.1818   90.6258    4.9002 C.3     1  UNL1        0.0938
      6 C          61.8643   91.3182    3.7579 C.3     1  UNL1        0.1081
      7 C          59.1174   93.4482   -3.4867 C.3     1  UNL1        0.0521
      8 C          59.7954   93.3573   -2.1518 C.ar    1  UNL1        0.0593
      9 C          59.1128   92.6649   -1.0096 C.ar    1  UNL1        0.0148
     10 C          59.7908   92.5740    0.3254 C.ar    1  UNL1        0.0039
     11 C          61.1513   93.1754    0.5181 C.ar    1  UNL1        0.0310
     12 C          61.8293   93.0845    1.8530 C.ar    1  UNL1        0.0493
     13 C          63.1899   93.6860    2.0457 C.ar    1  UNL1        0.0146
     14 C          63.8725   94.3784    0.9035 C.ar    1  UNL1        0.0028
     15 C          63.1945   94.4693   -0.4314 C.ar    1  UNL1        0.0192
     16 C          61.8340   93.8679   -0.6242 C.ar    1  UNL1        0.0821
     17 N          61.1560   93.9588   -1.9591 N.ar    1  UNL1       -0.2496
     18 C          59.0991   90.3150    6.4220 C.3     1  UNL1        0.0770
     19 C          59.6837   89.0577    6.9941 C.3     1  UNL1        0.0468
     20 C          60.1018   89.0126    8.4340 C.ar    1  UNL1        0.0147
     21 C          59.7536   90.1466    9.3520 C.ar    1  UNL1       -0.0011
     22 C          60.1717   90.1014   10.7918 C.ar    1  UNL1        0.0014
     23 C          60.9380   88.9222   11.3137 C.ar    1  UNL1        0.0223
     24 C          61.2862   87.7882   10.3957 C.ar    1  UNL1        0.1177
     25 C          60.8681   87.8334    8.9559 C.ar    1  UNL1        0.1527
     26 O          61.2163   86.6993    8.0378 O.3     1  UNL1       -0.4677
     27 C          61.9826   85.5201    8.5597 C.3     1  UNL1        0.2522
     28 C          62.4006   85.4750    9.9996 C.ar    1  UNL1        0.1210
     29 C          63.1585   84.4523   10.7930 C.ar    1  UNL1        0.0996
     30 C          63.7010   83.1553   10.2699 C.3     1  UNL1        0.0555
     31 N          63.2787   84.9542   12.2014 N.ar    1  UNL1       -0.1331
     32 N          62.5951   86.2872   12.2784 N.ar    1  UNL1       -0.0600
     33 N          62.0524   86.6090   10.9176 N.ar    1  UNL1       -0.2083
@<TRIPOS>BOND
     1     7     8    1
     2     8     9   ar
     3     9    10   ar
     4    10    11   ar
     5    11    12   ar
     6    12     1    1
     7     1     2    1
     8     2     3    1
     9     3     4    1
    10     4    18    1
    11    18    19    1
    12    19    20    1
    13    20    21   ar
    14    21    22   ar
    15    22    23   ar
    16    23    24   ar
    17    24    25   ar
    18    25    26    1
    19    26    27    1
    20    27    28    1
    21    28    29   ar
    22    29    30    1
    23    29    31   ar
    24    31    32   ar
    25    32    33   ar
    26     4     5    1
    27     5     6    1
    28    12    13   ar
    29    13    14   ar
    30    14    15   ar
    31    15    16   ar
    32    16    17   ar
    33    17     8   ar
    34    16    11   ar
    35     6     1    1
    36    25    20   ar
    37    33    28   ar
    38    33    24    1
@<TRIPOS>MOLECULE
*****
 33 38 0 0 0
SMALL
GASTEIGER

@<TRIPOS>ATOM
      1 N          62.2889   89.6684   11.2220 N.pl3   1  UNL1       -0.3046
      2 C          62.5058   88.4375   10.3927 C.3     1  UNL1        0.1081
      3 C          61.5294   88.0800    9.3115 C.3     1  UNL1        0.0938
      4 N          60.3361   88.9533    9.0597 N.3     1  UNL1       -0.2695
      5 C          60.1193   90.1843    9.8892 C.3     1  UNL1        0.0938
      6 C          61.0957   90.5418   10.9703 C.3     1  UNL1        0.1081
      7 C          66.8521   94.7913   11.6504 C.3     1  UNL1        0.0521
      8 C          65.9554   93.5999   11.8136 C.ar    1  UNL1        0.0593
      9 C          64.9790   93.2424   10.7325 C.ar    1  UNL1        0.0148
     10 C          64.0823   92.0511   10.8956 C.ar    1  UNL1        0.0039
     11 C          64.1620   91.2172   12.1399 C.ar    1  UNL1        0.0310
     12 C          63.2653   90.0259   12.3031 C.ar    1  UNL1        0.0493
     13 C          63.3450   89.1920   13.5475 C.ar    1  UNL1        0.0146
     14 C          64.3214   89.5495   14.6286 C.ar    1  UNL1        0.0028
     15 C          65.2181   90.7409   14.4654 C.ar    1  UNL1        0.0192
     16 C          65.1384   91.5747   13.2211 C.ar    1  UNL1        0.0821
     17 N          66.0351   92.7661   13.0579 N.ar    1  UNL1       -0.2496
     18 C          59.3598   88.5958    7.9786 C.3     1  UNL1        0.0770
     19 C          59.7186   88.8205    6.5396 C.3     1  UNL1        0.0468
     20 C          59.1143   89.9683    5.7863 C.ar    1  UNL1        0.0147
     21 C          57.6587   90.2906    5.9517 C.ar    1  UNL1       -0.0011
     22 C          57.0544   91.4383    5.1984 C.ar    1  UNL1        0.0014
     23 C          57.9057   92.2638    4.2798 C.ar    1  UNL1        0.0223
     24 C          59.3613   91.9415    4.1144 C.ar    1  UNL1        0.1177
     25 C          59.9656   90.7938    4.8677 C.ar    1  UNL1        0.1527
     26 O          61.4212   90.4714    4.7023 O.3     1  UNL1       -0.4677
     27 C          62.2725   91.2969    3.7837 C.3     1  UNL1        0.2522
     28 C          61.6682   92.4447    3.0304 C.ar    1  UNL1        0.1210
     29 C          62.2537   93.4285    2.0613 C.ar    1  UNL1        0.0996
     30 C          63.6821   93.4740    1.6057 C.3     1  UNL1        0.0555
     31 N          61.1599   94.3589    1.6277 N.ar    1  UNL1       -0.1331
     32 N          59.8985   93.9500    2.3288 N.ar    1  UNL1       -0.0600
     33 N          60.2126   92.7670    3.1958 N.ar    1  UNL1       -0.2083
@<TRIPOS>BOND
     1     7     8    1
     2     8     9   ar
     3     9    10   ar
     4    10    11   ar
     5    11    12   ar
     6    12     1    1
     7     1     2    1
     8     2     3    1
     9     3     4    1
    10     4    18    1
    11    18    19    1
    12    19    20    1
    13    20    21   ar
    14    21    22   ar
    15    22    23   ar
    16    23    24   ar
    17    24    25   ar
    18    25    26    1
    19    26    27    1
    20    27    28    1
    21    28    29   ar
    22    29    30    1
    23    29    31   ar
    24    31    32   ar
    25    32    33   ar
    26     4     5    1
    27     5     6    1
    28    12    13   ar
    29    13    14   ar
    30    14    15   ar
    31    15    16   ar
    32    16    17   ar
    33    17     8   ar
    34    16    11   ar
    35     6     1    1
    36    25    20   ar
    37    33    28   ar
    38    33    24    1
