@<TRIPOS>MOLECULE
*****
 32 35 0 0 0
SMALL
GASTEIGER

@<TRIPOS>ATOM
      1 C          65.5073   92.8072   10.6463 C.3     1  UNL1        0.0311
      2 C          65.0103   92.0634   11.8504 C.ar    1  UNL1       -0.0188
      3 C          63.7948   91.1910   11.7440 C.ar    1  UNL1        0.0324
      4 C          63.2978   90.4472   12.9481 C.ar    1  UNL1        0.1353
      5 C          64.0163   90.5757   14.2584 C.ar    1  UNL1        0.0278
      6 C          65.2320   91.4481   14.3648 C.ar    1  UNL1       -0.0001
      7 C          65.9505   91.5766   15.6752 C.ar    1  UNL1       -0.0002
      8 C          67.1661   92.4489   15.7815 C.ar    1  UNL1       -0.0000
      9 C          67.6631   93.1928   14.5775 C.ar    1  UNL1       -0.0000
     10 C          66.9445   93.0643   13.2671 C.ar    1  UNL1       -0.0003
     11 C          65.7290   92.1919   13.1608 C.ar    1  UNL1       -0.0040
     12 O          62.0821   89.5748   12.8417 O.3     1  UNL1       -0.4795
     13 C          61.9074   88.6733   11.6556 C.3     1  UNL1        0.1659
     14 C          62.5027   87.2966   11.6658 C.3     1  UNL1        0.0435
     15 C          62.3280   86.3951   10.4797 C.3     1  UNL1        0.0037
     16 C          61.5579   86.8704    9.2834 C.3     1  UNL1        0.0002
     17 C          60.9626   88.2471    9.2732 C.3     1  UNL1        0.0037
     18 C          61.1373   89.1486   10.4594 C.3     1  UNL1        0.0435
     19 C          61.3832   85.9689    8.0974 C.3     1  UNL1        0.0000
     20 C          62.7910   85.4783    8.2628 C.3     1  UNL1        0.0000
     21 C          59.9754   86.4594    7.9319 C.3     1  UNL1        0.0000
     22 C          61.2085   85.0674    6.9113 C.3     1  UNL1        0.0000
     23 C          63.5193   89.8318   15.4624 C.3     1  UNL1        0.1022
     24 N          63.5765   88.3333   15.4946 N.3     1  UNL1       -0.2689
     25 C          64.3036   87.5871   14.4154 C.3     1  UNL1        0.0728
     26 C          64.3608   86.0886   14.4476 C.3     1  UNL1        0.0229
     27 C          63.6910   85.3362   15.5590 C.3     1  UNL1        0.0393
     28 C          62.9640   86.0823   16.6382 C.3     1  UNL1        0.0229
     29 C          62.9068   87.5809   16.6061 C.3     1  UNL1        0.0728
     30 C          63.7483   83.8376   15.5912 C.2     1  UNL1        0.0501
     31 O          62.4788   83.0387   15.6042 O.co2   1  UNL1       -0.5492
     32 O          65.0750   83.1380   15.6104 O.co2   1  UNL1       -0.5492
@<TRIPOS>UNITY_ATOM_ATTR
31 1
charge -1
@<TRIPOS>BOND
     1     1     2    1
     2     2     3   ar
     3     3     4   ar
     4     4    12    1
     5    13    12    1
     6    13    14    1
     7    14    15    1
     8    15    16    1
     9    16    19    1
    10    19    20    1
    11    19    21    1
    12    19    22    1
    13    16    17    1
    14    17    18    1
    15     4     5   ar
    16     5    23    1
    17    23    24    1
    18    24    25    1
    19    25    26    1
    20    26    27    1
    21    27    30    1
    22    30    31   ar
    23    30    32   ar
    24    27    28    1
    25    28    29    1
    26     5     6   ar
    27     6     7   ar
    28     7     8   ar
    29     8     9   ar
    30     9    10   ar
    31    10    11   ar
    32    11     2   ar
    33    18    13    1
    34    29    24    1
    35    11     6   ar
@<TRIPOS>MOLECULE
*****
 32 35 0 0 0
SMALL
GASTEIGER

@<TRIPOS>ATOM
      1 C          59.0797   88.4111    7.4440 C.3     1  UNL1        0.0311
      2 C          60.0562   87.9311    8.4765 C.ar    1  UNL1       -0.0188
      3 C          60.1515   88.6296    9.8005 C.ar    1  UNL1        0.0324
      4 C          61.1280   88.1497   10.8331 C.ar    1  UNL1        0.1353
      5 C          62.0091   86.9713   10.5417 C.ar    1  UNL1        0.0278
      6 C          61.9137   86.2727    9.2176 C.ar    1  UNL1       -0.0001
      7 C          62.7948   85.0943    8.9262 C.ar    1  UNL1       -0.0002
      8 C          62.6995   84.3958    7.6022 C.ar    1  UNL1       -0.0000
      9 C          61.7230   84.8758    6.5697 C.ar    1  UNL1       -0.0000
     10 C          60.8419   86.0542    6.8611 C.ar    1  UNL1       -0.0003
     11 C          60.9373   86.7527    8.1851 C.ar    1  UNL1       -0.0040
     12 O          61.2233   88.8482   12.1571 O.3     1  UNL1       -0.4795
     13 C          62.4143   89.7050   12.4691 C.3     1  UNL1        0.1659
     14 C          62.9277   90.6763   11.4477 C.3     1  UNL1        0.0435
     15 C          64.1187   91.5330   11.7597 C.3     1  UNL1        0.0037
     16 C          64.7965   91.4186   13.0930 C.3     1  UNL1        0.0002
     17 C          64.2831   90.4473   14.1143 C.3     1  UNL1        0.0037
     18 C          63.0920   89.5905   13.8023 C.3     1  UNL1        0.0435
     19 C          65.9875   92.2753   13.4049 C.3     1  UNL1        0.0000
     20 C          66.2414   91.4708   14.6451 C.3     1  UNL1        0.0000
     21 C          65.7336   93.0799   12.1647 C.3     1  UNL1        0.0000
     22 C          67.1785   93.1321   13.7168 C.3     1  UNL1        0.0000
     23 C          62.9855   86.4913   11.5743 C.3     1  UNL1        0.1022
     24 N          62.7958   85.1510   12.2202 N.3     1  UNL1       -0.2689
     25 C          62.5782   85.0562   13.7014 C.3     1  UNL1        0.0728
     26 C          62.3884   83.7158   14.3473 C.3     1  UNL1        0.0229
     27 C          62.4163   82.4701   13.5122 C.3     1  UNL1        0.0393
     28 C          62.6339   82.5648   12.0311 C.3     1  UNL1        0.0229
     29 C          62.8236   83.9052   11.3851 C.3     1  UNL1        0.0728
     30 C          62.2265   81.1297   14.1581 C.2     1  UNL1        0.0501
     31 O          63.4128   80.2518   14.4264 O.co2   1  UNL1       -0.5492
     32 O          60.8505   80.6672   14.5358 O.co2   1  UNL1       -0.5492
@<TRIPOS>UNITY_ATOM_ATTR
31 1
charge -1
@<TRIPOS>BOND
     1     1     2    1
     2     2     3   ar
     3     3     4   ar
     4     4    12    1
     5    13    12    1
     6    13    14    1
     7    14    15    1
     8    15    16    1
     9    16    19    1
    10    19    20    1
    11    19    21    1
    12    19    22    1
    13    16    17    1
    14    17    18    1
    15     4     5   ar
    16     5    23    1
    17    23    24    1
    18    24    25    1
    19    25    26    1
    20    26    27    1
    21    27    30    1
    22    30    31   ar
    23    30    32   ar
    24    27    28    1
    25    28    29    1
    26     5     6   ar
    27     6     7   ar
    28     7     8   ar
    29     8     9   ar
    30     9    10   ar
    31    10    11   ar
    32    11     2   ar
    33    18    13    1
    34    29    24    1
    35    11     6   ar
@<TRIPOS>MOLECULE
*****
 32 35 0 0 0
SMALL
GASTEIGER

@<TRIPOS>ATOM
      1 C          68.4587   92.3212   14.3382 C.3     1  UNL1        0.0311
      2 C          67.0351   91.9672   14.0249 C.ar    1  UNL1       -0.0188
      3 C          66.2182   91.1952   15.0181 C.ar    1  UNL1        0.0324
      4 C          64.7946   90.8412   14.7048 C.ar    1  UNL1        0.1353
      5 C          64.1879   91.2593   13.3982 C.ar    1  UNL1        0.0278
      6 C          65.0049   92.0314   12.4049 C.ar    1  UNL1       -0.0001
      7 C          64.3982   92.4495   11.0983 C.ar    1  UNL1       -0.0002
      8 C          65.2152   93.2215   10.1051 C.ar    1  UNL1       -0.0000
      9 C          66.6387   93.5755   10.4185 C.ar    1  UNL1       -0.0000
     10 C          67.2454   93.1574   11.7250 C.ar    1  UNL1       -0.0003
     11 C          66.4285   92.3854   12.7182 C.ar    1  UNL1       -0.0040
     12 O          63.9777   90.0691   15.6981 O.3     1  UNL1       -0.4795
     13 C          63.8817   88.5761   15.5912 C.3     1  UNL1        0.1659
     14 C          64.5485   87.8612   14.4536 C.3     1  UNL1        0.0435
     15 C          64.4526   86.3681   14.3467 C.3     1  UNL1        0.0037
     16 C          63.6898   85.5898   15.3776 C.3     1  UNL1        0.0002
     17 C          63.0230   86.3047   16.5153 C.3     1  UNL1        0.0037
     18 C          63.1190   87.7979   16.6221 C.3     1  UNL1        0.0435
     19 C          63.5939   84.0967   15.2708 C.3     1  UNL1        0.0000
     20 C          62.3217   84.1216   16.0651 C.3     1  UNL1        0.0000
     21 C          64.8660   84.0718   14.4764 C.3     1  UNL1        0.0000
     22 C          63.4979   82.6037   15.1639 C.3     1  UNL1        0.0000
     23 C          62.7644   90.9054   13.0849 C.3     1  UNL1        0.1022
     24 N          62.4597   89.9016   12.0128 N.3     1  UNL1       -0.2689
     25 C          62.8976   88.4759   12.1737 C.3     1  UNL1        0.0728
     26 C          62.5929   87.4721   11.1016 C.3     1  UNL1        0.0229
     27 C          61.8502   87.8939    9.8685 C.3     1  UNL1        0.0393
     28 C          61.4123   89.3195    9.7075 C.3     1  UNL1        0.0229
     29 C          61.7171   90.3233   10.7796 C.3     1  UNL1        0.0728
     30 C          61.5455   86.8901    8.7964 C.2     1  UNL1        0.0501
     31 O          62.5727   85.8660    8.4139 O.co2   1  UNL1       -0.5492
     32 O          60.2136   86.9103    8.1066 O.co2   1  UNL1       -0.5492
@<TRIPOS>UNITY_ATOM_ATTR
31 1
charge -1
@<TRIPOS>BOND
     1     1     2    1
     2     2     3   ar
     3     3     4   ar
     4     4    12    1
     5    13    12    1
     6    13    14    1
     7    14    15    1
     8    15    16    1
     9    16    19    1
    10    19    20    1
    11    19    21    1
    12    19    22    1
    13    16    17    1
    14    17    18    1
    15     4     5   ar
    16     5    23    1
    17    23    24    1
    18    24    25    1
    19    25    26    1
    20    26    27    1
    21    27    30    1
    22    30    31   ar
    23    30    32   ar
    24    27    28    1
    25    28    29    1
    26     5     6   ar
    27     6     7   ar
    28     7     8   ar
    29     8     9   ar
    30     9    10   ar
    31    10    11   ar
    32    11     2   ar
    33    18    13    1
    34    29    24    1
    35    11     6   ar
@<TRIPOS>MOLECULE
*****
 32 35 0 0 0
SMALL
GASTEIGER

@<TRIPOS>ATOM
      1 C          61.2669   85.2306    7.0531 C.3     1  UNL1        0.0311
      2 C          61.2949   86.1806    8.2136 C.ar    1  UNL1       -0.0188
      3 C          61.9930   85.7933    9.4834 C.ar    1  UNL1        0.0324
      4 C          62.0210   86.7433   10.6438 C.ar    1  UNL1        0.1353
      5 C          61.3508   88.0808   10.5344 C.ar    1  UNL1        0.0278
      6 C          60.6525   88.4682    9.2646 C.ar    1  UNL1       -0.0001
      7 C          59.9823   89.8056    9.1552 C.ar    1  UNL1       -0.0002
      8 C          59.2841   90.1930    7.8854 C.ar    1  UNL1       -0.0000
      9 C          59.2562   89.2430    6.7250 C.ar    1  UNL1       -0.0000
     10 C          59.9264   87.9055    6.8343 C.ar    1  UNL1       -0.0003
     11 C          60.6246   87.5181    8.1041 C.ar    1  UNL1       -0.0040
     12 O          62.7192   86.3559   11.9136 O.3     1  UNL1       -0.4795
     13 C          62.6443   84.9422   12.4094 C.3     1  UNL1        0.1659
     14 C          62.7058   83.8020   11.4367 C.3     1  UNL1        0.0435
     15 C          62.6309   82.3883   11.9325 C.3     1  UNL1        0.0037
     16 C          62.4946   82.1148   13.4011 C.3     1  UNL1        0.0002
     17 C          62.4331   83.2550   14.3738 C.3     1  UNL1        0.0037
     18 C          62.5080   84.6687   13.8780 C.3     1  UNL1        0.0435
     19 C          62.4197   80.7011   13.8969 C.3     1  UNL1        0.0000
     20 C          63.9049   80.5661   13.7362 C.3     1  UNL1        0.0000
     21 C          60.9345   80.8361   14.0576 C.3     1  UNL1        0.0000
     22 C          62.3448   79.2874   14.3927 C.3     1  UNL1        0.0000
     23 C          61.3787   89.0308   11.6949 C.3     1  UNL1        0.1022
     24 N          62.5350   89.9707   11.8670 N.3     1  UNL1       -0.2689
     25 C          63.0333   90.7686   10.6986 C.3     1  UNL1        0.0728
     26 C          64.1896   91.7085   10.8707 C.3     1  UNL1        0.0229
     27 C          64.8475   91.8505   12.2112 C.3     1  UNL1        0.0393
     28 C          64.3492   91.0527   13.3796 C.3     1  UNL1        0.0229
     29 C          63.1929   90.1127   13.2075 C.3     1  UNL1        0.0728
     30 C          66.0038   92.7904   12.3833 C.2     1  UNL1        0.0501
     31 O          65.9884   93.8038   13.4892 O.co2   1  UNL1       -0.5492
     32 O          67.1755   92.7169   11.4496 O.co2   1  UNL1       -0.5492
@<TRIPOS>UNITY_ATOM_ATTR
31 1
charge -1
@<TRIPOS>BOND
     1     1     2    1
     2     2     3   ar
     3     3     4   ar
     4     4    12    1
     5    13    12    1
     6    13    14    1
     7    14    15    1
     8    15    16    1
     9    16    19    1
    10    19    20    1
    11    19    21    1
    12    19    22    1
    13    16    17    1
    14    17    18    1
    15     4     5   ar
    16     5    23    1
    17    23    24    1
    18    24    25    1
    19    25    26    1
    20    26    27    1
    21    27    30    1
    22    30    31   ar
    23    30    32   ar
    24    27    28    1
    25    28    29    1
    26     5     6   ar
    27     6     7   ar
    28     7     8   ar
    29     8     9   ar
    30     9    10   ar
    31    10    11   ar
    32    11     2   ar
    33    18    13    1
    34    29    24    1
    35    11     6   ar
@<TRIPOS>MOLECULE
*****
 32 35 0 0 0
SMALL
GASTEIGER

@<TRIPOS>ATOM
      1 C          68.1764   92.0263   14.0695 C.3     1  UNL1        0.0311
      2 C          66.7468   91.6106   13.8866 C.ar    1  UNL1       -0.0188
      3 C          66.0687   90.7763   14.9325 C.ar    1  UNL1        0.0324
      4 C          64.6391   90.3606   14.7497 C.ar    1  UNL1        0.1353
      5 C          63.8876   90.7792   13.5209 C.ar    1  UNL1        0.0278
      6 C          64.5657   91.6136   12.4749 C.ar    1  UNL1       -0.0001
      7 C          63.8142   92.0322   11.2461 C.ar    1  UNL1       -0.0002
      8 C          64.4923   92.8665   10.2002 C.ar    1  UNL1       -0.0000
      9 C          65.9219   93.2822   10.3830 C.ar    1  UNL1       -0.0000
     10 C          66.6734   92.8636   11.6118 C.ar    1  UNL1       -0.0003
     11 C          65.9953   92.0293   12.6577 C.ar    1  UNL1       -0.0040
     12 O          63.9610   89.5262   15.7957 O.3     1  UNL1       -0.4795
     13 C          63.8150   88.0467   15.5964 C.3     1  UNL1        0.1659
     14 C          63.0667   87.2245   16.6035 C.3     1  UNL1        0.0435
     15 C          62.9207   85.7450   16.4042 C.3     1  UNL1        0.0037
     16 C          63.5230   85.0876   15.1979 C.3     1  UNL1        0.0002
     17 C          64.2712   85.9098   14.1908 C.3     1  UNL1        0.0037
     18 C          64.4172   87.3894   14.3901 C.3     1  UNL1        0.0435
     19 C          63.3770   83.6081   14.9986 C.3     1  UNL1        0.0000
     20 C          62.0531   83.6439   15.7028 C.3     1  UNL1        0.0000
     21 C          64.7009   83.5723   14.2944 C.3     1  UNL1        0.0000
     22 C          63.2310   82.1287   14.7993 C.3     1  UNL1        0.0000
     23 C          62.4580   90.3634   13.3380 C.3     1  UNL1        0.1022
     24 N          62.0567   89.5680   12.1313 N.3     1  UNL1       -0.2689
     25 C          60.8505   89.9698   11.3352 C.3     1  UNL1        0.0728
     26 C          60.4493   89.1743   10.1285 C.3     1  UNL1        0.0229
     27 C          61.2541   87.9770    9.7179 C.3     1  UNL1        0.0393
     28 C          62.4603   87.5752   10.5139 C.3     1  UNL1        0.0229
     29 C          62.8616   88.3707   11.7207 C.3     1  UNL1        0.0728
     30 C          60.8529   87.1815    8.5112 C.2     1  UNL1        0.0501
     31 O          61.5627   85.9004    8.1874 O.co2   1  UNL1       -0.5492
     32 O          59.7417   87.6672    7.6282 O.co2   1  UNL1       -0.5492
@<TRIPOS>UNITY_ATOM_ATTR
31 1
charge -1
@<TRIPOS>BOND
     1     1     2    1
     2     2     3   ar
     3     3     4   ar
     4     4    12    1
     5    13    12    1
     6    13    14    1
     7    14    15    1
     8    15    16    1
     9    16    19    1
    10    19    20    1
    11    19    21    1
    12    19    22    1
    13    16    17    1
    14    17    18    1
    15     4     5   ar
    16     5    23    1
    17    23    24    1
    18    24    25    1
    19    25    26    1
    20    26    27    1
    21    27    30    1
    22    30    31   ar
    23    30    32   ar
    24    27    28    1
    25    28    29    1
    26     5     6   ar
    27     6     7   ar
    28     7     8   ar
    29     8     9   ar
    30     9    10   ar
    31    10    11   ar
    32    11     2   ar
    33    18    13    1
    34    29    24    1
    35    11     6   ar
