@<TRIPOS>MOLECULE
*****
 40 43 0 0 0
SMALL
GASTEIGER

@<TRIPOS>ATOM
      1 N          63.4308   86.0378   12.9667 N.am    1  UNL1       -0.2770
      2 C          64.0603   84.7535   13.4189 C.2     1  UNL1        0.2294
      3 O          64.5095   84.9395   14.0506 O.2     1  UNL1       -0.2747
      4 C          63.7697   83.4772   12.6864 C.3     1  UNL1        0.1208
      5 C          64.1953   83.3194   11.2566 C.3     1  UNL1        0.0804
      6 N          63.9047   82.0431   10.5241 N.3     1  UNL1       -0.2969
      7 C          63.1885   80.9246   11.2213 C.3     1  UNL1        0.0714
      8 C          62.7629   81.0824   12.6509 C.3     1  UNL1        0.0487
      9 C          63.0535   82.3587   13.3835 C.3     1  UNL1        0.1177
     10 O          62.3538   81.5908   14.4655 O.3     1  UNL1       -0.3821
     11 H          64.8023   81.6704   10.2146 H       1  UNL1        0.1233
     12 H          62.0983   80.7177   14.1289 H       1  UNL1        0.2107
     13 C          63.1011   83.3683   14.4918 C.ar    1  UNL1        0.0046
     14 C          64.3859   83.6174   15.2247 C.ar    1  UNL1        0.0004
     15 C          64.4334   84.6271   16.3330 C.ar    1  UNL1        0.0317
     16 C          63.1962   85.3876   16.7084 C.ar    1  UNL1        0.1674
     17 F          63.2439   86.3972   17.8168 F       1  UNL1       -0.2018
     18 C          61.9114   85.1385   15.9756 C.ar    1  UNL1        0.1671
     19 F          60.6742   85.8989   16.3509 F       1  UNL1       -0.2018
     20 C          61.8639   84.1288   14.8672 C.ar    1  UNL1        0.0299
     21 C          62.5109   86.0458   11.7820 C.3     1  UNL1        0.0758
     22 C          61.1330   86.1949   11.2082 C.3     1  UNL1        0.0215
     23 C          62.2953   85.9105   10.3038 C.3     1  UNL1        0.0215
     24 C          63.7214   87.3141   13.6992 C.3     1  UNL1        0.1201
     25 C          62.7109   90.0531   11.0110 C.ar    1  UNL1       -0.0194
     26 C          62.8114   88.7384   11.7261 C.ar    1  UNL1       -0.0067
     27 C          63.6209   88.6289   12.9841 C.ar    1  UNL1        0.0004
     28 C          64.3299   89.8341   13.5270 C.ar    1  UNL1        0.0343
     29 C          64.2294   91.1487   12.8119 C.ar    1  UNL1        0.1381
     30 C          63.4199   91.2583   11.5539 C.ar    1  UNL1        0.0326
     31 C          61.9013   90.1626    9.7529 C.3     1  UNL1        0.0290
     32 C          60.5130   89.5971    9.7028 C.3     1  UNL1        0.0367
     33 C          60.0492   88.8543    8.4850 C.3     1  UNL1        0.1426
     34 C          59.5025   86.4348    7.7121 C.3     1  UNL1        0.1741
     35 O          59.2539   87.5912    8.6345 O.3     1  UNL1       -0.3511
     36 O          64.9385   92.3540   13.3548 O.3     1  UNL1       -0.4728
     37 C          66.1741   92.8663   12.6761 C.3     1  UNL1        0.2373
     38 C          66.0787   94.0050   11.7043 C.3     1  UNL1        0.1894
     39 O          67.2540   94.3539   10.8401 O.3     1  UNL1       -0.3471
     40 C          67.0631   94.5783    9.3693 C.3     1  UNL1        0.1743
@<TRIPOS>BOND
     1    34    35    1
     2    35    33    1
     3    33    32    1
     4    32    31    1
     5    31    25    1
     6    25    26   ar
     7    26    27   ar
     8    27    24    1
     9    24     1    1
    10     1     2   am
    11     2     3    2
    12     4     2    1
    13     4     5    1
    14     5     6    1
    15     6     7    1
    16     7     8    1
    17     8     9    1
    18     9    10    1
    19     9    13    1
    20    13    14   ar
    21    14    15   ar
    22    15    16   ar
    23    16    17    1
    24    16    18   ar
    25    18    19    1
    26    18    20   ar
    27     1    21    1
    28    21    22    1
    29    22    23    1
    30    27    28   ar
    31    28    29   ar
    32    29    36    1
    33    36    37    1
    34    37    38    1
    35    38    39    1
    36    39    40    1
    37    29    30   ar
    38    30    25   ar
    39     9     4    1
    40    20    13   ar
    41    23    21    1
    42     6    11    1
    43    10    12    1
@<TRIPOS>MOLECULE
*****
 40 43 0 0 0
SMALL
GASTEIGER

@<TRIPOS>ATOM
      1 N          62.1159   88.3652   11.0393 N.am    1  UNL1       -0.2770
      2 C          62.0925   87.8250    9.6401 C.2     1  UNL1        0.2294
      3 O          62.7703   87.4148    9.5517 O.2     1  UNL1       -0.2747
      4 C          60.9260   88.1162    8.7432 C.3     1  UNL1        0.1208
      5 C          60.5571   89.5359    8.4295 C.3     1  UNL1        0.0804
      6 N          59.3907   89.8271    7.5326 N.3     1  UNL1       -0.2969
      7 C          58.5931   88.6985    6.9492 C.3     1  UNL1        0.0714
      8 C          58.9620   87.2789    7.2629 C.3     1  UNL1        0.0487
      9 C          60.1284   86.9877    8.1599 C.3     1  UNL1        0.1177
     10 O          59.6821   85.5894    7.8508 O.3     1  UNL1       -0.3821
     11 H          59.7511   90.3695    6.7475 H       1  UNL1        0.1233
     12 H          58.9117   85.6186    7.2621 H       1  UNL1        0.2107
     13 C          61.1399   86.2109    8.9495 C.ar    1  UNL1        0.0046
     14 C          62.3617   85.6649    8.2719 C.ar    1  UNL1        0.0004
     15 C          63.3731   84.8881    9.0616 C.ar    1  UNL1        0.0317
     16 C          63.1628   84.6573   10.5288 C.ar    1  UNL1        0.1674
     17 F          64.1744   83.8805   11.3184 F       1  UNL1       -0.2018
     18 C          61.9411   85.2033   11.2063 C.ar    1  UNL1        0.1671
     19 F          61.7307   84.9726   12.6734 F       1  UNL1       -0.2018
     20 C          60.9296   85.9801   10.4166 C.ar    1  UNL1        0.0299
     21 C          60.9728   89.1966   11.5415 C.3     1  UNL1        0.0758
     22 C          59.6528   89.2996   12.2465 C.3     1  UNL1        0.0215
     23 C          60.3129   90.5335   11.7063 C.3     1  UNL1        0.0215
     24 C          63.2823   88.0741   11.9363 C.3     1  UNL1        0.1201
     25 C          63.4856   89.3788   15.6788 C.ar    1  UNL1       -0.0194
     26 C          63.2079   88.4952   14.4990 C.ar    1  UNL1       -0.0067
     27 C          63.5601   88.9577   13.1162 C.ar    1  UNL1        0.0004
     28 C          64.1900   90.3038   12.9133 C.ar    1  UNL1        0.0343
     29 C          64.4677   91.1874   14.0931 C.ar    1  UNL1        0.1381
     30 C          64.1155   90.7249   15.4759 C.ar    1  UNL1        0.0326
     31 C          63.1334   88.9163   17.0616 C.3     1  UNL1        0.0290
     32 C          63.2152   87.4594   17.4087 C.3     1  UNL1        0.0367
     33 C          61.9628   86.6390   17.5014 C.3     1  UNL1        0.1426
     34 C          62.8217   84.7857   15.8958 C.3     1  UNL1        0.1741
     35 O          61.6876   85.5727   16.4828 O.3     1  UNL1       -0.3511
     36 O          65.0976   92.5336   13.8903 O.3     1  UNL1       -0.4728
     37 C          66.3856   92.6521   13.1307 C.3     1  UNL1        0.2373
     38 C          67.6300   92.0012   13.6580 C.3     1  UNL1        0.1894
     39 O          68.6030   92.7965   14.4770 O.3     1  UNL1       -0.3471
     40 C          68.1456   93.4774   15.7328 C.3     1  UNL1        0.1743
@<TRIPOS>BOND
     1    34    35    1
     2    35    33    1
     3    33    32    1
     4    32    31    1
     5    31    25    1
     6    25    26   ar
     7    26    27   ar
     8    27    24    1
     9    24     1    1
    10     1     2   am
    11     2     3    2
    12     4     2    1
    13     4     5    1
    14     5     6    1
    15     6     7    1
    16     7     8    1
    17     8     9    1
    18     9    10    1
    19     9    13    1
    20    13    14   ar
    21    14    15   ar
    22    15    16   ar
    23    16    17    1
    24    16    18   ar
    25    18    19    1
    26    18    20   ar
    27     1    21    1
    28    21    22    1
    29    22    23    1
    30    27    28   ar
    31    28    29   ar
    32    29    36    1
    33    36    37    1
    34    37    38    1
    35    38    39    1
    36    39    40    1
    37    29    30   ar
    38    30    25   ar
    39     9     4    1
    40    20    13   ar
    41    23    21    1
    42     6    11    1
    43    10    12    1
@<TRIPOS>MOLECULE
*****
 40 43 0 0 0
SMALL
GASTEIGER

@<TRIPOS>ATOM
      1 N          61.7082   88.8818   11.0902 N.am    1  UNL1       -0.2770
      2 C          61.8267   88.2337    9.7426 C.2     1  UNL1        0.2294
      3 O          62.5325   87.8630    9.7384 O.2     1  UNL1       -0.2747
      4 C          60.7191   88.3771    8.7413 C.3     1  UNL1        0.1208
      5 C          60.3896   89.7268    8.1756 C.3     1  UNL1        0.0804
      6 N          59.2820   89.8702    7.1743 N.3     1  UNL1       -0.2969
      7 C          58.5038   88.6640    6.7388 C.3     1  UNL1        0.0714
      8 C          58.8332   87.3145    7.3046 C.3     1  UNL1        0.0487
      9 C          59.9409   87.1710    8.3058 C.3     1  UNL1        0.1177
     10 O          59.4934   85.7428    8.2060 O.3     1  UNL1       -0.3821
     11 H          59.6955   90.2732    6.3335 H       1  UNL1        0.1233
     12 H          58.7593   85.6773    7.5753 H       1  UNL1        0.2107
     13 C          60.8931   86.5316    9.2724 C.ar    1  UNL1        0.0046
     14 C          60.6100   86.5763   10.7448 C.ar    1  UNL1        0.0004
     15 C          61.5623   85.9368   11.7113 C.ar    1  UNL1        0.0317
     16 C          62.7977   85.2527   11.2055 C.ar    1  UNL1        0.1674
     17 F          63.7499   84.6132   12.1722 F       1  UNL1       -0.2018
     18 C          63.0808   85.2079    9.7332 C.ar    1  UNL1        0.1671
     19 F          64.3162   84.5238    9.2274 F       1  UNL1       -0.2018
     20 C          62.1285   85.8474    8.7666 C.ar    1  UNL1        0.0299
     21 C          60.4820   89.6733   11.4365 C.3     1  UNL1        0.0758
     22 C          59.2088   89.8218   12.2155 C.3     1  UNL1        0.0215
     23 C          59.6314   90.8957   11.2573 C.3     1  UNL1        0.0215
     24 C          62.8158   88.7383   12.0914 C.3     1  UNL1        0.1201
     25 C          64.9002   92.0925   11.6975 C.ar    1  UNL1       -0.0194
     26 C          64.0346   90.9141   11.3628 C.ar    1  UNL1       -0.0067
     27 C          63.6815   89.9167   12.4262 C.ar    1  UNL1        0.0004
     28 C          64.1942   90.0978   13.8241 C.ar    1  UNL1        0.0343
     29 C          65.0598   91.2761   14.1588 C.ar    1  UNL1        0.1381
     30 C          65.4129   92.2735   13.0954 C.ar    1  UNL1        0.0326
     31 C          65.2532   93.0898   10.6341 C.3     1  UNL1        0.0290
     32 C          66.3450   94.0895   10.8762 C.3     1  UNL1        0.0367
     33 C          67.2434   94.5065    9.7497 C.3     1  UNL1        0.1426
     34 C          68.8377   92.5127    9.2669 C.3     1  UNL1        0.1741
     35 O          68.6321   93.9478    9.6517 O.3     1  UNL1       -0.3511
     36 O          65.5725   91.4572   15.5568 O.3     1  UNL1       -0.4728
     37 C          66.5594   92.5458   15.8587 C.3     1  UNL1        0.2373
     38 C          68.0274   92.3000   15.6727 C.3     1  UNL1        0.1894
     39 O          68.7007   92.7098   14.3965 O.3     1  UNL1       -0.3471
     40 C          68.7574   91.7574   13.2391 C.3     1  UNL1        0.1743
@<TRIPOS>BOND
     1    34    35    1
     2    35    33    1
     3    33    32    1
     4    32    31    1
     5    31    25    1
     6    25    26   ar
     7    26    27   ar
     8    27    24    1
     9    24     1    1
    10     1     2   am
    11     2     3    2
    12     4     2    1
    13     4     5    1
    14     5     6    1
    15     6     7    1
    16     7     8    1
    17     8     9    1
    18     9    10    1
    19     9    13    1
    20    13    14   ar
    21    14    15   ar
    22    15    16   ar
    23    16    17    1
    24    16    18   ar
    25    18    19    1
    26    18    20   ar
    27     1    21    1
    28    21    22    1
    29    22    23    1
    30    27    28   ar
    31    28    29   ar
    32    29    36    1
    33    36    37    1
    34    37    38    1
    35    38    39    1
    36    39    40    1
    37    29    30   ar
    38    30    25   ar
    39     9     4    1
    40    20    13   ar
    41    23    21    1
    42     6    11    1
    43    10    12    1
@<TRIPOS>MOLECULE
*****
 40 43 0 0 0
SMALL
GASTEIGER

@<TRIPOS>ATOM
      1 N          62.4086   88.1852   11.6279 N.am    1  UNL1       -0.2770
      2 C          62.0560   88.4001   10.1858 C.2     1  UNL1        0.2294
      3 O          61.9255   89.1824   10.1057 O.2     1  UNL1       -0.2747
      4 C          62.0135   87.2347    9.2424 C.3     1  UNL1        0.1208
      5 C          63.2739   86.4920    8.9105 C.3     1  UNL1        0.0804
      6 N          63.2314   85.3266    7.9671 N.3     1  UNL1       -0.2969
      7 C          61.9285   84.9038    7.3556 C.3     1  UNL1        0.0714
      8 C          60.6683   85.6465    7.6874 C.3     1  UNL1        0.0487
      9 C          60.7108   86.8119    8.6308 C.3     1  UNL1        0.1177
     10 O          59.2461   86.7913    8.3080 O.3     1  UNL1       -0.3821
     11 H          63.5920   84.5208    8.4781 H       1  UNL1        0.1233
     12 H          59.0615   86.0676    7.6891 H       1  UNL1        0.2107
     13 C          60.2446   87.9701    9.4621 C.ar    1  UNL1        0.0046
     14 C          60.3242   89.3651    8.9164 C.ar    1  UNL1        0.0004
     15 C          59.8580   90.5233    9.7477 C.ar    1  UNL1        0.0317
     16 C          59.3123   90.2867   11.1247 C.ar    1  UNL1        0.1674
     17 F          58.8461   91.4451   11.9560 F       1  UNL1       -0.2018
     18 C          59.2326   88.8918   11.6705 C.ar    1  UNL1        0.1671
     19 F          58.6869   88.6551   13.0474 F       1  UNL1       -0.2018
     20 C          59.6989   87.7335   10.8391 C.ar    1  UNL1        0.0299
     21 C          62.7187   86.8049   12.1265 C.3     1  UNL1        0.0758
     22 C          62.4666   85.3265   12.0985 C.3     1  UNL1        0.0215
     23 C          63.5077   85.8926   13.0181 C.3     1  UNL1        0.0215
     24 C          62.4511   89.3506   12.5712 C.3     1  UNL1        0.1201
     25 C          65.8076   91.1280   13.7222 C.ar    1  UNL1       -0.0194
     26 C          64.6193   90.2128   13.7140 C.ar    1  UNL1       -0.0067
     27 C          63.6395   90.2659   12.5794 C.ar    1  UNL1        0.0004
     28 C          63.8480   91.2344   11.4531 C.ar    1  UNL1        0.0343
     29 C          65.0363   92.1496   11.4614 C.ar    1  UNL1        0.1381
     30 C          66.0162   92.0965   12.5959 C.ar    1  UNL1        0.0326
     31 C          66.7875   91.0749   14.8567 C.3     1  UNL1        0.0290
     32 C          67.8060   92.1639   15.0197 C.3     1  UNL1        0.0367
     33 C          67.4205   93.4605   15.6678 C.3     1  UNL1        0.1426
     34 C          69.9307   94.0396   16.0044 C.3     1  UNL1        0.1741
     35 O          68.4831   94.4096   16.1371 O.3     1  UNL1       -0.3511
     36 O          65.2449   93.1182   10.3350 O.3     1  UNL1       -0.4728
     37 C          66.1820   94.2768   10.5060 C.3     1  UNL1        0.2373
     38 C          67.2362   94.5475    9.4737 C.3     1  UNL1        0.1894
     39 O          68.6081   93.9619    9.6312 O.3     1  UNL1       -0.3471
     40 C          68.8539   92.5235    9.2841 C.3     1  UNL1        0.1743
@<TRIPOS>BOND
     1    34    35    1
     2    35    33    1
     3    33    32    1
     4    32    31    1
     5    31    25    1
     6    25    26   ar
     7    26    27   ar
     8    27    24    1
     9    24     1    1
    10     1     2   am
    11     2     3    2
    12     4     2    1
    13     4     5    1
    14     5     6    1
    15     6     7    1
    16     7     8    1
    17     8     9    1
    18     9    10    1
    19     9    13    1
    20    13    14   ar
    21    14    15   ar
    22    15    16   ar
    23    16    17    1
    24    16    18   ar
    25    18    19    1
    26    18    20   ar
    27     1    21    1
    28    21    22    1
    29    22    23    1
    30    27    28   ar
    31    28    29   ar
    32    29    36    1
    33    36    37    1
    34    37    38    1
    35    38    39    1
    36    39    40    1
    37    29    30   ar
    38    30    25   ar
    39     9     4    1
    40    20    13   ar
    41    23    21    1
    42     6    11    1
    43    10    12    1
@<TRIPOS>MOLECULE
*****
 40 43 0 0 0
SMALL
GASTEIGER

@<TRIPOS>ATOM
      1 N          63.3477   86.0799   12.8565 N.am    1  UNL1       -0.2770
      2 C          63.9743   84.8185   13.3726 C.2     1  UNL1        0.2294
      3 O          64.4054   85.0315   14.0084 O.2     1  UNL1       -0.2747
      4 C          63.7124   83.5135   12.6809 C.3     1  UNL1        0.1208
      5 C          64.0990   83.3364   11.2424 C.3     1  UNL1        0.0804
      6 N          63.8371   82.0314   10.5506 N.3     1  UNL1       -0.2969
      7 C          63.1886   80.9036   11.2975 C.3     1  UNL1        0.0714
      8 C          62.8021   81.0808   12.7359 C.3     1  UNL1        0.0487
      9 C          63.0640   82.3857   13.4276 C.3     1  UNL1        0.1177
     10 O          62.4301   81.6186   14.5500 O.3     1  UNL1       -0.3821
     11 H          64.7387   81.6865   10.2213 H       1  UNL1        0.1233
     12 H          62.1995   80.7279   14.2430 H       1  UNL1        0.2107
     13 C          63.1058   83.4243   14.5091 C.ar    1  UNL1        0.0046
     14 C          64.3967   83.7237   15.2120 C.ar    1  UNL1        0.0004
     15 C          64.4383   84.7623   16.2935 C.ar    1  UNL1        0.0317
     16 C          63.1892   85.5015   16.6721 C.ar    1  UNL1        0.1674
     17 F          63.2310   86.5401   17.7536 F       1  UNL1       -0.2018
     18 C          61.8984   85.2021   15.9692 C.ar    1  UNL1        0.1671
     19 F          60.6493   85.9412   16.3478 F       1  UNL1       -0.2018
     20 C          61.8567   84.1635   14.8877 C.ar    1  UNL1        0.0299
     21 C          62.4591   86.0363   11.6488 C.3     1  UNL1        0.0758
     22 C          62.2890   85.8872   10.1660 C.3     1  UNL1        0.0215
     23 C          61.0904   86.1098   11.0398 C.3     1  UNL1        0.0215
     24 C          63.6096   87.3849   13.5482 C.3     1  UNL1        0.1201
     25 C          64.2979   91.1309   12.4332 C.ar    1  UNL1       -0.0194
     26 C          64.3669   89.8462   13.2044 C.ar    1  UNL1       -0.0067
     27 C          63.5405   88.6696   12.7770 C.ar    1  UNL1        0.0004
     28 C          62.6451   88.7777   11.5785 C.ar    1  UNL1        0.0343
     29 C          62.5761   90.0624   10.8073 C.ar    1  UNL1        0.1381
     30 C          63.4025   91.2390   11.2347 C.ar    1  UNL1        0.0326
     31 C          65.1244   92.3075   12.8606 C.3     1  UNL1        0.0290
     32 C          66.0928   92.1704   13.9977 C.3     1  UNL1        0.0367
     33 C          67.5494   91.9447   13.7193 C.3     1  UNL1        0.1426
     34 C          68.2439   93.5011   15.6804 C.3     1  UNL1        0.1741
     35 O          68.5834   92.7874   14.4055 O.3     1  UNL1       -0.3511
     36 O          61.6807   90.1705    9.6087 O.3     1  UNL1       -0.4728
     37 C          60.4326   89.3426    9.5278 C.3     1  UNL1        0.2373
     38 C          59.8927   88.9282    8.1910 C.3     1  UNL1        0.1894
     39 O          58.9920   87.7336    8.0835 O.3     1  UNL1       -0.3471
     40 C          59.5544   86.4048    7.6739 C.3     1  UNL1        0.1743
@<TRIPOS>BOND
     1    34    35    1
     2    35    33    1
     3    33    32    1
     4    32    31    1
     5    31    25    1
     6    25    26   ar
     7    26    27   ar
     8    27    24    1
     9    24     1    1
    10     1     2   am
    11     2     3    2
    12     4     2    1
    13     4     5    1
    14     5     6    1
    15     6     7    1
    16     7     8    1
    17     8     9    1
    18     9    10    1
    19     9    13    1
    20    13    14   ar
    21    14    15   ar
    22    15    16   ar
    23    16    17    1
    24    16    18   ar
    25    18    19    1
    26    18    20   ar
    27     1    21    1
    28    21    22    1
    29    22    23    1
    30    27    28   ar
    31    28    29   ar
    32    29    36    1
    33    36    37    1
    34    37    38    1
    35    38    39    1
    36    39    40    1
    37    29    30   ar
    38    30    25   ar
    39     9     4    1
    40    20    13   ar
    41    23    21    1
    42     6    11    1
    43    10    12    1
@<TRIPOS>MOLECULE
*****
 40 43 0 0 0
SMALL
GASTEIGER

@<TRIPOS>ATOM
      1 N          61.6789   88.9009   11.0668 N.am    1  UNL1       -0.2770
      2 C          61.7976   88.2498    9.7206 C.2     1  UNL1        0.2294
      3 O          62.5033   87.8790    9.7174 O.2     1  UNL1       -0.2747
      4 C          60.6901   88.3913    8.7188 C.3     1  UNL1        0.1208
      5 C          60.3478   89.7427    8.1650 C.3     1  UNL1        0.0804
      6 N          59.2404   89.8841    7.1633 N.3     1  UNL1       -0.2969
      7 C          58.4753   88.6741    6.7153 C.3     1  UNL1        0.0714
      8 C          58.8176   87.3228    7.2691 C.3     1  UNL1        0.0487
      9 C          59.9250   87.1814    8.2708 C.3     1  UNL1        0.1177
     10 O          59.4923   85.7497    8.1570 O.3     1  UNL1       -0.3821
     11 H          59.6511   90.2991    6.3269 H       1  UNL1        0.1233
     12 H          58.7599   85.6826    7.5245 H       1  UNL1        0.2107
     13 C          60.8822   86.5428    9.2331 C.ar    1  UNL1        0.0046
     14 C          60.5999   86.5772   10.7059 C.ar    1  UNL1        0.0004
     15 C          61.5571   85.9385   11.6681 C.ar    1  UNL1        0.0317
     16 C          62.7966   85.2654   11.1576 C.ar    1  UNL1        0.1674
     17 F          63.7538   84.6268   12.1199 F       1  UNL1       -0.2018
     18 C          63.0789   85.2310    9.6848 C.ar    1  UNL1        0.1671
     19 F          64.3183   84.5579    9.1742 F       1  UNL1       -0.2018
     20 C          62.1216   85.8697    8.7226 C.ar    1  UNL1        0.0299
     21 C          60.4527   89.6934   11.4111 C.3     1  UNL1        0.0758
     22 C          59.1452   89.8140   12.1362 C.3     1  UNL1        0.0215
     23 C          59.6365   90.9452   11.2825 C.3     1  UNL1        0.0215
     24 C          62.7863   88.7595   12.0686 C.3     1  UNL1        0.1201
     25 C          65.1401   91.2452   14.0762 C.ar    1  UNL1       -0.0194
     26 C          64.2639   90.0706   13.7561 C.ar    1  UNL1       -0.0067
     27 C          63.6626   89.9341   12.3887 C.ar    1  UNL1        0.0004
     28 C          63.9376   90.9722   11.3414 C.ar    1  UNL1        0.0343
     29 C          64.8138   92.1467   11.6616 C.ar    1  UNL1        0.1381
     30 C          65.4151   92.2832   13.0290 C.ar    1  UNL1        0.0326
     31 C          65.7414   91.3817   15.4436 C.3     1  UNL1        0.0290
     32 C          66.5862   92.5759   15.7757 C.3     1  UNL1        0.0367
     33 C          68.0765   92.5069   15.6202 C.3     1  UNL1        0.1426
     34 C          68.7755   91.7688   13.2292 C.3     1  UNL1        0.1741
     35 O          68.7078   92.8209   14.2962 O.3     1  UNL1       -0.3511
     36 O          65.0888   93.1848   10.6143 O.3     1  UNL1       -0.4728
     37 C          66.2088   94.1642   10.8050 C.3     1  UNL1        0.2373
     38 C          67.2045   94.3884    9.7056 C.3     1  UNL1        0.1894
     39 O          68.5588   93.7477    9.7783 O.3     1  UNL1       -0.3471
     40 C          68.7884   92.4058    9.1487 C.3     1  UNL1        0.1743
@<TRIPOS>BOND
     1    34    35    1
     2    35    33    1
     3    33    32    1
     4    32    31    1
     5    31    25    1
     6    25    26   ar
     7    26    27   ar
     8    27    24    1
     9    24     1    1
    10     1     2   am
    11     2     3    2
    12     4     2    1
    13     4     5    1
    14     5     6    1
    15     6     7    1
    16     7     8    1
    17     8     9    1
    18     9    10    1
    19     9    13    1
    20    13    14   ar
    21    14    15   ar
    22    15    16   ar
    23    16    17    1
    24    16    18   ar
    25    18    19    1
    26    18    20   ar
    27     1    21    1
    28    21    22    1
    29    22    23    1
    30    27    28   ar
    31    28    29   ar
    32    29    36    1
    33    36    37    1
    34    37    38    1
    35    38    39    1
    36    39    40    1
    37    29    30   ar
    38    30    25   ar
    39     9     4    1
    40    20    13   ar
    41    23    21    1
    42     6    11    1
    43    10    12    1
@<TRIPOS>MOLECULE
*****
 40 43 0 0 0
SMALL
GASTEIGER

@<TRIPOS>ATOM
      1 N          63.4358   86.0239   13.0197 N.am    1  UNL1       -0.2770
      2 C          64.1324   84.7241   13.2944 C.2     1  UNL1        0.2294
      3 O          64.5572   84.8388   13.9591 O.2     1  UNL1       -0.2747
      4 C          63.9334   83.5572   12.3732 C.3     1  UNL1        0.1208
      5 C          64.5153   83.5853   10.9908 C.3     1  UNL1        0.0804
      6 N          64.3164   82.4184   10.0696 N.3     1  UNL1       -0.2969
      7 C          63.5355   81.2234   10.5306 C.3     1  UNL1        0.0714
      8 C          62.9537   81.1954   11.9128 C.3     1  UNL1        0.0487
      9 C          63.1526   82.3623   12.8341 C.3     1  UNL1        0.1177
     10 O          62.3433   81.4644   13.7221 O.3     1  UNL1       -0.3821
     11 H          65.2453   82.0827    9.8147 H       1  UNL1        0.1233
     12 H          62.1327   80.6449   13.2477 H       1  UNL1        0.2107
     13 C          63.0705   83.2174   14.0638 C.ar    1  UNL1        0.0046
     14 C          64.2442   83.3089   14.9934 C.ar    1  UNL1        0.0004
     15 C          64.1620   84.1640   16.2231 C.ar    1  UNL1        0.0317
     16 C          62.9062   84.9275   16.5231 C.ar    1  UNL1        0.1674
     17 F          62.8241   85.7826   17.7529 F       1  UNL1       -0.2018
     18 C          61.7326   84.8360   15.5936 C.ar    1  UNL1        0.1671
     19 F          60.4768   85.5995   15.8936 F       1  UNL1       -0.2018
     20 C          61.8148   83.9809   14.3638 C.ar    1  UNL1        0.0299
     21 C          62.5403   86.1567   11.8237 C.3     1  UNL1        0.0758
     22 C          61.1685   86.3227   11.2401 C.3     1  UNL1        0.0215
     23 C          62.3609   86.2207   10.3359 C.3     1  UNL1        0.0215
     24 C          63.6347   87.1908   13.9410 C.3     1  UNL1        0.1201
     25 C          64.7734   90.9691   13.5191 C.ar    1  UNL1       -0.0194
     26 C          64.6328   89.5855   14.0809 C.ar    1  UNL1       -0.0067
     27 C          63.7752   88.5745   13.3791 C.ar    1  UNL1        0.0004
     28 C          63.0582   88.9473   12.1154 C.ar    1  UNL1        0.0343
     29 C          63.1987   90.3310   11.5536 C.ar    1  UNL1        0.1381
     30 C          64.0563   91.3419   12.2555 C.ar    1  UNL1        0.0326
     31 C          65.6310   91.9800   14.2209 C.3     1  UNL1        0.0290
     32 C          66.9677   91.5778   14.7698 C.3     1  UNL1        0.0367
     33 C          68.2230   91.9636   14.0450 C.3     1  UNL1        0.1426
     34 C          68.7618   93.7362   15.8665 C.3     1  UNL1        0.1741
     35 O          69.1792   92.9376   14.6673 O.3     1  UNL1       -0.3511
     36 O          62.4816   90.7038   10.2899 O.3     1  UNL1       -0.4728
     37 C          61.6260   89.6922    9.5868 C.3     1  UNL1        0.2373
     38 C          60.1431   89.6770    9.8130 C.3     1  UNL1        0.1894
     39 O          59.5593   90.3739   11.0061 O.3     1  UNL1       -0.3471
     40 C          59.3638   89.6247   12.2907 C.3     1  UNL1        0.1743
@<TRIPOS>BOND
     1    34    35    1
     2    35    33    1
     3    33    32    1
     4    32    31    1
     5    31    25    1
     6    25    26   ar
     7    26    27   ar
     8    27    24    1
     9    24     1    1
    10     1     2   am
    11     2     3    2
    12     4     2    1
    13     4     5    1
    14     5     6    1
    15     6     7    1
    16     7     8    1
    17     8     9    1
    18     9    10    1
    19     9    13    1
    20    13    14   ar
    21    14    15   ar
    22    15    16   ar
    23    16    17    1
    24    16    18   ar
    25    18    19    1
    26    18    20   ar
    27     1    21    1
    28    21    22    1
    29    22    23    1
    30    27    28   ar
    31    28    29   ar
    32    29    36    1
    33    36    37    1
    34    37    38    1
    35    38    39    1
    36    39    40    1
    37    29    30   ar
    38    30    25   ar
    39     9     4    1
    40    20    13   ar
    41    23    21    1
    42     6    11    1
    43    10    12    1
@<TRIPOS>MOLECULE
*****
 40 43 0 0 0
SMALL
GASTEIGER

@<TRIPOS>ATOM
      1 N          62.3967   88.1691   11.6386 N.am    1  UNL1       -0.2770
      2 C          62.0516   88.3869   10.1951 C.2     1  UNL1        0.2294
      3 O          61.9219   89.1694   10.1159 O.2     1  UNL1       -0.2747
      4 C          62.0132   87.2232    9.2494 C.3     1  UNL1        0.1208
      5 C          63.2705   86.4654    8.9412 C.3     1  UNL1        0.0804
      6 N          63.2320   85.3017    7.9955 N.3     1  UNL1       -0.2969
      7 C          61.9363   84.8959    7.3579 C.3     1  UNL1        0.0714
      8 C          60.6791   85.6537    7.6661 C.3     1  UNL1        0.0487
      9 C          60.7175   86.8174    8.6118 C.3     1  UNL1        0.1177
     10 O          59.2593   86.8154    8.2603 O.3     1  UNL1       -0.3821
     11 H          63.5726   84.4909    8.5123 H       1  UNL1        0.1233
     12 H          59.0779   86.0948    7.6368 H       1  UNL1        0.2107
     13 C          60.2495   87.9804    9.4354 C.ar    1  UNL1        0.0046
     14 C          60.3446   89.3737    8.8880 C.ar    1  UNL1        0.0004
     15 C          59.8766   90.5366    9.7117 C.ar    1  UNL1        0.0317
     16 C          59.3135   90.3064   11.0828 C.ar    1  UNL1        0.1674
     17 F          58.8455   91.4694   11.9064 F       1  UNL1       -0.2018
     18 C          59.2185   88.9131   11.6303 C.ar    1  UNL1        0.1671
     19 F          58.6554   88.6828   13.0014 F       1  UNL1       -0.2018
     20 C          59.6865   87.7501   10.8066 C.ar    1  UNL1        0.0299
     21 C          62.7033   86.7878   12.1363 C.3     1  UNL1        0.0758
     22 C          62.4551   85.3089   12.0997 C.3     1  UNL1        0.0215
     23 C          63.4827   85.8740   13.0349 C.3     1  UNL1        0.0215
     24 C          62.4351   89.3328   12.5843 C.3     1  UNL1        0.1201
     25 C          65.0948   92.1189   11.6285 C.ar    1  UNL1       -0.0194
     26 C          63.8818   91.2385   11.5716 C.ar    1  UNL1       -0.0067
     27 C          63.6483   90.2132   12.6413 C.ar    1  UNL1        0.0004
     28 C          64.6279   90.0683   13.7679 C.ar    1  UNL1        0.0343
     29 C          65.8410   90.9487   13.8248 C.ar    1  UNL1        0.1381
     30 C          66.0745   91.9740   12.7551 C.ar    1  UNL1        0.0326
     31 C          65.3283   93.1442   10.5588 C.3     1  UNL1        0.0290
     32 C          66.2916   94.2693   10.7958 C.3     1  UNL1        0.0367
     33 C          67.3500   94.5773    9.7784 C.3     1  UNL1        0.1426
     34 C          68.7327   92.4881    9.0905 C.3     1  UNL1        0.1741
     35 O          68.6415   93.8144    9.7852 O.3     1  UNL1       -0.3511
     36 O          66.8207   90.8038   14.9514 O.3     1  UNL1       -0.4728
     37 C          67.7895   91.9094   15.2498 C.3     1  UNL1        0.2373
     38 C          67.3380   93.1146   16.0204 C.3     1  UNL1        0.1894
     39 O          68.1776   94.3575   16.0283 O.3     1  UNL1       -0.3471
     40 C          69.6737   94.2518   16.0465 C.3     1  UNL1        0.1743
@<TRIPOS>BOND
     1    34    35    1
     2    35    33    1
     3    33    32    1
     4    32    31    1
     5    31    25    1
     6    25    26   ar
     7    26    27   ar
     8    27    24    1
     9    24     1    1
    10     1     2   am
    11     2     3    2
    12     4     2    1
    13     4     5    1
    14     5     6    1
    15     6     7    1
    16     7     8    1
    17     8     9    1
    18     9    10    1
    19     9    13    1
    20    13    14   ar
    21    14    15   ar
    22    15    16   ar
    23    16    17    1
    24    16    18   ar
    25    18    19    1
    26    18    20   ar
    27     1    21    1
    28    21    22    1
    29    22    23    1
    30    27    28   ar
    31    28    29   ar
    32    29    36    1
    33    36    37    1
    34    37    38    1
    35    38    39    1
    36    39    40    1
    37    29    30   ar
    38    30    25   ar
    39     9     4    1
    40    20    13   ar
    41    23    21    1
    42     6    11    1
    43    10    12    1
@<TRIPOS>MOLECULE
*****
 40 43 0 0 0
SMALL
GASTEIGER

@<TRIPOS>ATOM
      1 N          62.0899   88.2984   11.0519 N.am    1  UNL1       -0.2770
      2 C          62.0770   87.7873    9.6417 C.2     1  UNL1        0.2294
      3 O          62.7542   87.3768    9.5506 O.2     1  UNL1       -0.2747
      4 C          60.9192   88.1007    8.7409 C.3     1  UNL1        0.1208
      5 C          60.5439   89.5278    8.4710 C.3     1  UNL1        0.0804
      6 N          59.3861   89.8412    7.5702 N.3     1  UNL1       -0.2969
      7 C          58.6037   88.7277    6.9394 C.3     1  UNL1        0.0714
      8 C          58.9791   87.3007    7.2093 C.3     1  UNL1        0.0487
      9 C          60.1368   86.9873    8.1101 C.3     1  UNL1        0.1177
     10 O          59.7043   85.5973    7.7484 O.3     1  UNL1       -0.3821
     11 H          59.7520   90.4124    6.8084 H       1  UNL1        0.1233
     12 H          58.9409   85.6411    7.1517 H       1  UNL1        0.2107
     13 C          61.1444   86.1911    8.8852 C.ar    1  UNL1        0.0046
     14 C          62.3546   85.6366    8.1939 C.ar    1  UNL1        0.0004
     15 C          63.3621   84.8404    8.9692 C.ar    1  UNL1        0.0317
     16 C          63.1595   84.5987   10.4356 C.ar    1  UNL1        0.1674
     17 F          64.1671   83.8024   11.2108 F       1  UNL1       -0.2018
     18 C          61.9493   85.1531   11.1269 C.ar    1  UNL1        0.1671
     19 F          61.7465   84.9114   12.5933 F       1  UNL1       -0.2018
     20 C          60.9417   85.9494   10.3517 C.ar    1  UNL1        0.0299
     21 C          60.9451   89.1230   11.5613 C.3     1  UNL1        0.0758
     22 C          60.3621   90.4596   11.9126 C.3     1  UNL1        0.0215
     23 C          59.5452   89.2145   12.0922 C.3     1  UNL1        0.0215
     24 C          63.2476   87.9850   11.9526 C.3     1  UNL1        0.1201
     25 C          64.6981   91.1970   13.7771 C.ar    1  UNL1       -0.0194
     26 C          64.3115   90.2372   12.6912 C.ar    1  UNL1       -0.0067
     27 C          63.6342   88.9448   13.0387 C.ar    1  UNL1        0.0004
     28 C          63.3435   88.6120   14.4721 C.ar    1  UNL1        0.0343
     29 C          63.7301   89.5718   15.5580 C.ar    1  UNL1        0.1381
     30 C          64.4074   90.8643   15.2106 C.ar    1  UNL1        0.0326
     31 C          65.3754   92.4895   13.4297 C.3     1  UNL1        0.0290
     32 C          65.9184   92.7039   12.0479 C.3     1  UNL1        0.0367
     33 C          66.0128   94.0916   11.4862 C.3     1  UNL1        0.1426
     34 C          67.2672   95.0233    9.4105 C.3     1  UNL1        0.1741
     35 O          67.2830   94.5520   10.8344 O.3     1  UNL1       -0.3511
     36 O          63.4395   89.2391   16.9916 O.3     1  UNL1       -0.4728
     37 C          62.5304   88.0939   17.3263 C.3     1  UNL1        0.2373
     38 C          63.0317   86.6838   17.2245 C.3     1  UNL1        0.1894
     39 O          62.0874   85.5765   16.8612 O.3     1  UNL1       -0.3471
     40 C          62.4888   84.5532   15.8405 C.3     1  UNL1        0.1743
@<TRIPOS>BOND
     1    34    35    1
     2    35    33    1
     3    33    32    1
     4    32    31    1
     5    31    25    1
     6    25    26   ar
     7    26    27   ar
     8    27    24    1
     9    24     1    1
    10     1     2   am
    11     2     3    2
    12     4     2    1
    13     4     5    1
    14     5     6    1
    15     6     7    1
    16     7     8    1
    17     8     9    1
    18     9    10    1
    19     9    13    1
    20    13    14   ar
    21    14    15   ar
    22    15    16   ar
    23    16    17    1
    24    16    18   ar
    25    18    19    1
    26    18    20   ar
    27     1    21    1
    28    21    22    1
    29    22    23    1
    30    27    28   ar
    31    28    29   ar
    32    29    36    1
    33    36    37    1
    34    37    38    1
    35    38    39    1
    36    39    40    1
    37    29    30   ar
    38    30    25   ar
    39     9     4    1
    40    20    13   ar
    41    23    21    1
    42     6    11    1
    43    10    12    1
