@<TRIPOS>MOLECULE
*****
 32 35 0 0 0
SMALL
GASTEIGER

@<TRIPOS>ATOM
      1 N          56.9527   94.5008   -2.2091 N.pl3   1  UNL1       -0.3041
      2 C          58.1735   95.3100   -2.5325 C.3     1  UNL1        0.1123
      3 C          59.5255   94.8396   -2.0845 C.3     1  UNL1        0.1148
      4 N          59.6567   93.5598   -1.3132 N.am    1  UNL1       -0.2755
      5 C          61.0088   93.0894   -0.8652 C.2     1  UNL1        0.2336
      6 O          61.1399   91.8096   -0.0938 O.2     1  UNL1       -0.2742
      7 C          58.4359   92.7506   -0.9898 C.3     1  UNL1        0.1148
      8 C          57.0839   93.2210   -1.4378 C.3     1  UNL1        0.1123
      9 C          52.8966   95.9122   -3.5531 C.ar    1  UNL1        0.1058
     10 C          54.0325   95.8540   -4.5310 C.ar    1  UNL1        0.0196
     11 C          55.3845   95.3835   -4.0830 C.ar    1  UNL1        0.0158
     12 C          55.6007   94.9712   -2.6571 C.ar    1  UNL1        0.0480
     13 C          54.4648   95.0294   -1.6792 C.ar    1  UNL1        0.0158
     14 C          53.1128   95.4999   -2.1272 C.ar    1  UNL1        0.0196
     15 C          50.1926   96.8531   -4.4491 C.3     1  UNL1        0.1816
     16 S          51.5446   96.3827   -4.0011 S.O2    1  UNL1        0.0105
     17 O          50.9746   96.0197   -2.6619 O.2     1  UNL1       -0.1686
     18 O          52.1146   96.7456   -5.3402 O.2     1  UNL1       -0.1686
     19 C          62.2296   93.8986   -1.1885 C.3     1  UNL1        0.1241
     20 C          62.9598   94.6234   -0.0970 C.ar    1  UNL1       -0.0096
     21 C          62.5202   95.9970    0.3156 C.ar    1  UNL1       -0.0026
     22 C          63.2504   96.7218    1.4072 C.ar    1  UNL1        0.0111
     23 C          64.4201   96.0730    2.0862 C.ar    1  UNL1        0.0577
     24 CL         65.1503   96.7978    3.1777 Cl      1  UNL1       -0.0822
     25 C          64.8596   94.6995    1.6735 C.ar    1  UNL1        0.0111
     26 C          64.1294   93.9747    0.5820 C.ar    1  UNL1       -0.0026
     27 C          62.7203   93.9831   -2.6035 C.ar    1  UNL1        0.0286
     28 C          62.7029   95.2975   -3.3261 C.ar    1  UNL1        0.0987
     29 N          63.1936   95.3820   -4.7411 N.ar    1  UNL1       -0.2227
     30 C          63.7017   94.1521   -5.4334 C.ar    1  UNL1        0.1989
     31 N          63.7191   92.8378   -4.7108 N.ar    1  UNL1       -0.2227
     32 C          63.2284   92.7533   -3.2958 C.ar    1  UNL1        0.0987
@<TRIPOS>BOND
     1    15    16    1
     2    16    17    2
     3    16    18    2
     4    16     9    1
     5     9    10   ar
     6    10    11   ar
     7    11    12   ar
     8    12     1    1
     9     1     2    1
    10     2     3    1
    11     3     4    1
    12     4     5   am
    13     5     6    2
    14     5    19    1
    15    19    20    1
    16    20    21   ar
    17    21    22   ar
    18    22    23   ar
    19    23    24    1
    20    23    25   ar
    21    25    26   ar
    22    19    27    1
    23    27    28   ar
    24    28    29   ar
    25    29    30   ar
    26    30    31   ar
    27    31    32   ar
    28     4     7    1
    29     7     8    1
    30    12    13   ar
    31    13    14   ar
    32    14     9   ar
    33     8     1    1
    34    26    20   ar
    35    32    27   ar
@<TRIPOS>MOLECULE
*****
 32 35 0 0 0
SMALL
GASTEIGER

@<TRIPOS>ATOM
      1 N          57.4153   94.4832   -1.9784 N.pl3   1  UNL1       -0.3041
      2 C          58.6326   95.3318   -2.1970 C.3     1  UNL1        0.1123
      3 C          59.9732   94.8573   -1.7198 C.3     1  UNL1        0.1148
      4 N          60.0964   93.5342   -1.0240 N.am    1  UNL1       -0.2755
      5 C          61.4370   93.0598   -0.5467 C.2     1  UNL1        0.2336
      6 O          61.5602   91.7367    0.1491 O.2     1  UNL1       -0.2742
      7 C          58.8791   92.6856   -0.8054 C.3     1  UNL1        0.1148
      8 C          57.5385   93.1601   -1.2826 C.3     1  UNL1        0.1123
      9 C          53.3936   95.9066   -3.4100 C.ar    1  UNL1        0.1058
     10 C          54.5739   95.9400   -4.3351 C.ar    1  UNL1        0.0196
     11 C          55.9144   95.4655   -3.8579 C.ar    1  UNL1        0.0158
     12 C          56.0747   94.9577   -2.4556 C.ar    1  UNL1        0.0480
     13 C          54.8944   94.9243   -1.5306 C.ar    1  UNL1        0.0158
     14 C          53.5538   95.3988   -2.0078 C.ar    1  UNL1        0.0196
     15 C          50.7124   96.8556   -4.3645 C.3     1  UNL1        0.1816
     16 S          52.0530   96.3811   -3.8873 S.O2    1  UNL1        0.0105
     17 O          52.5696   96.4251   -5.2948 O.2     1  UNL1       -0.1686
     18 O          51.5363   96.3371   -2.4797 O.2     1  UNL1       -0.1686
     19 C          62.6544   93.9084   -0.7653 C.3     1  UNL1        0.1241
     20 C          63.3269   93.9239   -2.1060 C.ar    1  UNL1       -0.0096
     21 C          63.3363   92.6871   -2.9548 C.ar    1  UNL1       -0.0026
     22 C          64.0089   92.7026   -4.2954 C.ar    1  UNL1        0.0111
     23 C          64.6721   93.9549   -4.7874 C.ar    1  UNL1        0.0577
     24 CL         65.3447   93.9704   -6.1280 Cl      1  UNL1       -0.0822
     25 C          64.6627   95.1916   -3.9386 C.ar    1  UNL1        0.0111
     26 C          63.9901   95.1761   -2.5980 C.ar    1  UNL1       -0.0026
     27 C          63.1992   94.7415    0.3568 C.ar    1  UNL1        0.0286
     28 C          62.5180   96.0220    0.7394 C.ar    1  UNL1        0.0987
     29 N          63.0628   96.8551    1.8614 N.ar    1  UNL1       -0.2227
     30 C          64.2889   96.4079    2.6009 C.ar    1  UNL1        0.1989
     31 N          64.9701   95.1274    2.2183 N.ar    1  UNL1       -0.2227
     32 C          64.4252   94.2943    1.0962 C.ar    1  UNL1        0.0987
@<TRIPOS>BOND
     1    15    16    1
     2    16    17    2
     3    16    18    2
     4    16     9    1
     5     9    10   ar
     6    10    11   ar
     7    11    12   ar
     8    12     1    1
     9     1     2    1
    10     2     3    1
    11     3     4    1
    12     4     5   am
    13     5     6    2
    14     5    19    1
    15    19    20    1
    16    20    21   ar
    17    21    22   ar
    18    22    23   ar
    19    23    24    1
    20    23    25   ar
    21    25    26   ar
    22    19    27    1
    23    27    28   ar
    24    28    29   ar
    25    29    30   ar
    26    30    31   ar
    27    31    32   ar
    28     4     7    1
    29     7     8    1
    30    12    13   ar
    31    13    14   ar
    32    14     9   ar
    33     8     1    1
    34    26    20   ar
    35    32    27   ar
@<TRIPOS>MOLECULE
*****
 32 35 0 0 0
SMALL
GASTEIGER

@<TRIPOS>ATOM
      1 N          57.1091   95.7188   -1.5433 N.pl3   1  UNL1       -0.3041
      2 C          58.0048   94.5383   -1.7758 C.3     1  UNL1        0.1123
      3 C          59.3650   94.4932   -1.1450 C.3     1  UNL1        0.1148
      4 N          59.8295   95.6286   -0.2818 N.am    1  UNL1       -0.2755
      5 C          61.1896   95.5835    0.3490 C.2     1  UNL1        0.2336
      6 O          61.6541   96.7189    1.2122 O.2     1  UNL1       -0.2742
      7 C          58.9337   96.8091   -0.0494 C.3     1  UNL1        0.1148
      8 C          57.5735   96.8542   -0.6802 C.3     1  UNL1        0.1123
      9 C          53.0286   95.8541   -3.4357 C.ar    1  UNL1        0.1058
     10 C          54.2556   95.9809   -4.2890 C.ar    1  UNL1        0.0196
     11 C          55.6158   95.9358   -3.6582 C.ar    1  UNL1        0.0158
     12 C          55.7489   95.7639   -2.1741 C.ar    1  UNL1        0.0480
     13 C          54.5219   95.6371   -1.3208 C.ar    1  UNL1        0.0158
     14 C          53.1617   95.6822   -1.9515 C.ar    1  UNL1        0.0196
     15 C          50.3082   95.9443   -4.6972 C.3     1  UNL1        0.1816
     16 S          51.6684   95.8992   -4.0664 S.O2    1  UNL1        0.0105
     17 O          51.0500   95.4916   -2.7621 O.2     1  UNL1       -0.1686
     18 O          52.2868   96.3068   -5.3708 O.2     1  UNL1       -0.1686
     19 C          62.0854   94.4030    0.1166 C.3     1  UNL1        0.1241
     20 C          62.7955   94.2472   -1.1955 C.ar    1  UNL1       -0.0096
     21 C          63.8399   95.2427   -1.6059 C.ar    1  UNL1       -0.0026
     22 C          64.5500   95.0869   -2.9179 C.ar    1  UNL1        0.0111
     23 C          64.2158   93.9355   -3.8195 C.ar    1  UNL1        0.0577
     24 CL         64.9260   93.7797   -5.1315 Cl      1  UNL1       -0.0822
     25 C          63.1715   92.9401   -3.4091 C.ar    1  UNL1        0.0111
     26 C          62.4614   93.0959   -2.0970 C.ar    1  UNL1       -0.0026
     27 C          62.2710   93.3783    1.1962 C.ar    1  UNL1        0.0286
     28 C          61.1221   93.0125    2.0886 C.ar    1  UNL1        0.0987
     29 N          61.3077   91.9879    3.1682 N.ar    1  UNL1       -0.2227
     30 C          62.6422   91.3289    3.3554 C.ar    1  UNL1        0.1989
     31 N          63.7910   91.6946    2.4630 N.ar    1  UNL1       -0.2227
     32 C          63.6054   92.7193    1.3834 C.ar    1  UNL1        0.0987
@<TRIPOS>BOND
     1    15    16    1
     2    16    17    2
     3    16    18    2
     4    16     9    1
     5     9    10   ar
     6    10    11   ar
     7    11    12   ar
     8    12     1    1
     9     1     2    1
    10     2     3    1
    11     3     4    1
    12     4     5   am
    13     5     6    2
    14     5    19    1
    15    19    20    1
    16    20    21   ar
    17    21    22   ar
    18    22    23   ar
    19    23    24    1
    20    23    25   ar
    21    25    26   ar
    22    19    27    1
    23    27    28   ar
    24    28    29   ar
    25    29    30   ar
    26    30    31   ar
    27    31    32   ar
    28     4     7    1
    29     7     8    1
    30    12    13   ar
    31    13    14   ar
    32    14     9   ar
    33     8     1    1
    34    26    20   ar
    35    32    27   ar
@<TRIPOS>MOLECULE
*****
 32 35 0 0 0
SMALL
GASTEIGER

@<TRIPOS>ATOM
      1 N          63.3775   84.8339   12.4636 N.pl3   1  UNL1       -0.3041
      2 C          62.8511   85.9152   11.5672 C.3     1  UNL1        0.1123
      3 C          63.0056   87.3551   11.9583 C.3     1  UNL1        0.1148
      4 N          63.6866   87.7136   13.2457 N.am    1  UNL1       -0.2755
      5 C          63.8412   89.1535   13.6368 C.2     1  UNL1        0.2336
      6 O          64.5222   89.5121   14.9243 O.2     1  UNL1       -0.2742
      7 C          64.2131   86.6323   14.1421 C.3     1  UNL1        0.1148
      8 C          64.0585   85.1925   13.7511 C.3     1  UNL1        0.1123
      9 C          62.9139   80.5144   11.2904 C.ar    1  UNL1        0.1058
     10 C          62.4840   80.9718   12.6527 C.ar    1  UNL1        0.0196
     11 C          62.6385   82.4117   13.0438 C.ar    1  UNL1        0.0158
     12 C          63.2230   83.3941   12.0726 C.ar    1  UNL1        0.0480
     13 C          63.6529   82.9366   10.7103 C.ar    1  UNL1        0.0158
     14 C          63.4984   81.4967   10.3192 C.ar    1  UNL1        0.0196
     15 C          62.6048   77.6346   10.5083 C.3     1  UNL1        0.1816
     16 S          62.7594   79.0745   10.8994 S.O2    1  UNL1        0.0105
     17 O          62.5385   78.7078   12.3370 O.2     1  UNL1       -0.1686
     18 O          62.9803   79.4412    9.4618 O.2     1  UNL1       -0.1686
     19 C          63.3147   90.2348   12.7404 C.3     1  UNL1        0.1241
     20 C          64.2152   91.3526   12.3049 C.ar    1  UNL1       -0.0096
     21 C          65.0670   92.0656   13.3130 C.ar    1  UNL1       -0.0026
     22 C          65.9675   93.1834   12.8776 C.ar    1  UNL1        0.0111
     23 C          66.0161   93.5883   11.4340 C.ar    1  UNL1        0.0577
     24 CL         66.9166   94.7061   10.9985 Cl      1  UNL1       -0.0822
     25 C          65.1643   92.8753   10.4260 C.ar    1  UNL1        0.0111
     26 C          64.2639   91.7575   10.8614 C.ar    1  UNL1       -0.0026
     27 C          61.8877   90.1983   12.2794 C.ar    1  UNL1        0.0286
     28 C          60.8195   89.6659   13.1879 C.ar    1  UNL1        0.0987
     29 N          59.3926   89.6294   12.7269 N.ar    1  UNL1       -0.2227
     30 C          59.0338   90.1253   11.3574 C.ar    1  UNL1        0.1989
     31 N          60.1021   90.6577   10.4489 N.ar    1  UNL1       -0.2227
     32 C          61.5291   90.6942   10.9099 C.ar    1  UNL1        0.0987
@<TRIPOS>BOND
     1    15    16    1
     2    16    17    2
     3    16    18    2
     4    16     9    1
     5     9    10   ar
     6    10    11   ar
     7    11    12   ar
     8    12     1    1
     9     1     2    1
    10     2     3    1
    11     3     4    1
    12     4     5   am
    13     5     6    2
    14     5    19    1
    15    19    20    1
    16    20    21   ar
    17    21    22   ar
    18    22    23   ar
    19    23    24    1
    20    23    25   ar
    21    25    26   ar
    22    19    27    1
    23    27    28   ar
    24    28    29   ar
    25    29    30   ar
    26    30    31   ar
    27    31    32   ar
    28     4     7    1
    29     7     8    1
    30    12    13   ar
    31    13    14   ar
    32    14     9   ar
    33     8     1    1
    34    26    20   ar
    35    32    27   ar
@<TRIPOS>MOLECULE
*****
 32 35 0 0 0
SMALL
GASTEIGER

@<TRIPOS>ATOM
      1 N          63.5137   86.2074   14.8072 N.pl3   1  UNL1       -0.3041
      2 C          64.2580   87.0231   13.7921 C.3     1  UNL1        0.1123
      3 C          64.4886   88.4863   14.0286 C.3     1  UNL1        0.1148
      4 N          63.9750   89.1338   15.2804 N.am    1  UNL1       -0.2755
      5 C          64.2056   90.5969   15.5170 C.2     1  UNL1        0.2336
      6 O          63.6920   91.2444   16.7687 O.2     1  UNL1       -0.2742
      7 C          63.2307   88.3181   16.2956 C.3     1  UNL1        0.1148
      8 C          63.0001   86.8549   16.0590 C.3     1  UNL1        0.1123
      9 C          62.8218   81.8180   14.0975 C.ar    1  UNL1        0.1058
     10 C          61.8684   82.5989   14.9526 C.ar    1  UNL1        0.0196
     11 C          62.0991   84.0620   15.1892 C.ar    1  UNL1        0.0158
     12 C          63.2831   84.7443   14.5707 C.ar    1  UNL1        0.0480
     13 C          64.2364   83.9634   13.7156 C.ar    1  UNL1        0.0158
     14 C          64.0058   82.5002   13.4790 C.ar    1  UNL1        0.0196
     15 C          62.3605   78.8916   13.6244 C.3     1  UNL1        0.1816
     16 S          62.5912   80.3548   13.8610 S.O2    1  UNL1        0.0105
     17 O          64.0148   80.0695   14.2375 O.2     1  UNL1       -0.1686
     18 O          61.1675   80.6401   13.4844 O.2     1  UNL1       -0.1686
     19 C          64.9499   91.4126   14.5018 C.3     1  UNL1        0.1241
     20 C          66.1990   92.1434   14.8965 C.ar    1  UNL1       -0.0096
     21 C          66.3659   93.5906   14.5389 C.ar    1  UNL1       -0.0026
     22 C          67.6150   94.3214   14.9336 C.ar    1  UNL1        0.0111
     23 C          68.6971   93.6050   15.6860 C.ar    1  UNL1        0.0577
     24 CL         69.9461   94.3358   16.0807 Cl      1  UNL1       -0.0822
     25 C          68.5300   92.1579   16.0436 C.ar    1  UNL1        0.0111
     26 C          67.2810   91.4271   15.6489 C.ar    1  UNL1       -0.0026
     27 C          64.4451   91.4976   13.0918 C.ar    1  UNL1        0.0286
     28 C          65.2816   92.1545   12.0340 C.ar    1  UNL1        0.0987
     29 N          64.7768   92.2395   10.6241 N.ar    1  UNL1       -0.2227
     30 C          63.4356   91.6675   10.2718 C.ar    1  UNL1        0.1989
     31 N          62.5992   91.0105   11.3295 N.ar    1  UNL1       -0.2227
     32 C          63.1040   90.9256   12.7396 C.ar    1  UNL1        0.0987
@<TRIPOS>BOND
     1    15    16    1
     2    16    17    2
     3    16    18    2
     4    16     9    1
     5     9    10   ar
     6    10    11   ar
     7    11    12   ar
     8    12     1    1
     9     1     2    1
    10     2     3    1
    11     3     4    1
    12     4     5   am
    13     5     6    2
    14     5    19    1
    15    19    20    1
    16    20    21   ar
    17    21    22   ar
    18    22    23   ar
    19    23    24    1
    20    23    25   ar
    21    25    26   ar
    22    19    27    1
    23    27    28   ar
    24    28    29   ar
    25    29    30   ar
    26    30    31   ar
    27    31    32   ar
    28     4     7    1
    29     7     8    1
    30    12    13   ar
    31    13    14   ar
    32    14     9   ar
    33     8     1    1
    34    26    20   ar
    35    32    27   ar
@<TRIPOS>MOLECULE
*****
 32 35 0 0 0
SMALL
GASTEIGER

@<TRIPOS>ATOM
      1 N          56.8260   95.7871   -2.1524 N.pl3   1  UNL1       -0.3041
      2 C          57.7441   94.6591   -2.5192 C.3     1  UNL1        0.1123
      3 C          59.1271   94.5995   -1.9416 C.3     1  UNL1        0.1148
      4 N          59.5920   95.6680   -0.9970 N.am    1  UNL1       -0.2755
      5 C          60.9751   95.6085   -0.4194 C.2     1  UNL1        0.2336
      6 O          61.4400   96.6770    0.5251 O.2     1  UNL1       -0.2742
      7 C          58.6739   96.7960   -0.6302 C.3     1  UNL1        0.1148
      8 C          57.2909   96.8556   -1.2079 C.3     1  UNL1        0.1123
      9 C          52.6769   95.9657   -3.8853 C.ar    1  UNL1        0.1058
     10 C          52.8685   95.9545   -2.3977 C.ar    1  UNL1        0.0196
     11 C          54.2515   95.8950   -1.8200 C.ar    1  UNL1        0.0158
     12 C          55.4430   95.8466   -2.7300 C.ar    1  UNL1        0.0480
     13 C          55.2513   95.8578   -4.2177 C.ar    1  UNL1        0.0158
     14 C          53.8683   95.9173   -4.7953 C.ar    1  UNL1        0.0196
     15 C          49.9108   96.0847   -5.0406 C.3     1  UNL1        0.1816
     16 S          51.2939   96.0252   -4.4630 S.O2    1  UNL1        0.0105
     17 O          51.8447   96.6319   -5.7193 O.2     1  UNL1       -0.1686
     18 O          50.7430   95.4184   -3.2066 O.2     1  UNL1       -0.1686
     19 C          61.8932   94.4805   -0.7862 C.3     1  UNL1        0.1241
     20 C          62.3489   93.5122    0.2649 C.ar    1  UNL1       -0.0096
     21 C          61.4377   92.4083    0.7133 C.ar    1  UNL1       -0.0026
     22 C          61.8934   91.4400    1.7644 C.ar    1  UNL1        0.0111
     23 C          63.2604   91.5757    2.3670 C.ar    1  UNL1        0.0577
     24 CL         63.7161   90.6075    3.4181 Cl      1  UNL1       -0.0822
     25 C          64.1715   92.6796    1.9186 C.ar    1  UNL1        0.0111
     26 C          63.7158   93.6479    0.8675 C.ar    1  UNL1       -0.0026
     27 C          62.3556   94.3207   -2.2043 C.ar    1  UNL1        0.0286
     28 C          62.9400   93.0166   -2.6601 C.ar    1  UNL1        0.0987
     29 N          63.4025   92.8567   -4.0780 N.ar    1  UNL1       -0.2227
     30 C          63.2804   94.0010   -5.0402 C.ar    1  UNL1        0.1989
     31 N          62.6960   95.3051   -4.5844 N.ar    1  UNL1       -0.2227
     32 C          62.2336   95.4649   -3.1664 C.ar    1  UNL1        0.0987
@<TRIPOS>BOND
     1    15    16    1
     2    16    17    2
     3    16    18    2
     4    16     9    1
     5     9    10   ar
     6    10    11   ar
     7    11    12   ar
     8    12     1    1
     9     1     2    1
    10     2     3    1
    11     3     4    1
    12     4     5   am
    13     5     6    2
    14     5    19    1
    15    19    20    1
    16    20    21   ar
    17    21    22   ar
    18    22    23   ar
    19    23    24    1
    20    23    25   ar
    21    25    26   ar
    22    19    27    1
    23    27    28   ar
    24    28    29   ar
    25    29    30   ar
    26    30    31   ar
    27    31    32   ar
    28     4     7    1
    29     7     8    1
    30    12    13   ar
    31    13    14   ar
    32    14     9   ar
    33     8     1    1
    34    26    20   ar
    35    32    27   ar
@<TRIPOS>MOLECULE
*****
 32 35 0 0 0
SMALL
GASTEIGER

@<TRIPOS>ATOM
      1 N          64.1255   90.5489   13.2945 N.pl3   1  UNL1       -0.3041
      2 C          64.2839   89.7904   12.0102 C.3     1  UNL1        0.1123
      3 C          63.1207   89.0379   11.4351 C.3     1  UNL1        0.1148
      4 N          61.7990   89.0440   12.1444 N.am    1  UNL1       -0.2755
      5 C          60.6358   88.2915   11.5694 C.2     1  UNL1        0.2336
      6 O          59.3141   88.2975   12.2787 O.2     1  UNL1       -0.2742
      7 C          61.6406   89.8024   13.4288 C.3     1  UNL1        0.1148
      8 C          62.8039   90.5549   14.0038 C.3     1  UNL1        0.1123
      9 C          67.6153   92.8062   15.0197 C.ar    1  UNL1        0.1058
     10 C          67.6367   92.3760   13.5829 C.ar    1  UNL1        0.0196
     11 C          66.4734   91.6235   13.0078 C.ar    1  UNL1        0.0158
     12 C          65.2888   91.3013   13.8696 C.ar    1  UNL1        0.0480
     13 C          65.2673   91.7315   15.3064 C.ar    1  UNL1        0.0158
     14 C          66.4306   92.4839   15.8814 C.ar    1  UNL1        0.0196
     15 C          69.9418   94.3111   16.1698 C.3     1  UNL1        0.1816
     16 S          68.7785   93.5586   15.5947 S.O2    1  UNL1        0.0105
     17 O          67.8817   94.1414   16.6464 O.2     1  UNL1       -0.1686
     18 O          69.6754   92.9759   14.5430 O.2     1  UNL1       -0.1686
     19 C          60.7942   87.5330   10.2850 C.3     1  UNL1        0.1241
     20 C          61.6739   86.3192   10.2345 C.ar    1  UNL1       -0.0096
     21 C          62.3739   85.9528    8.9593 C.ar    1  UNL1       -0.0026
     22 C          63.2536   84.7389    8.9088 C.ar    1  UNL1        0.0111
     23 C          63.4334   83.8914   10.1333 C.ar    1  UNL1        0.0577
     24 CL         64.3131   82.6775   10.0828 Cl      1  UNL1       -0.0822
     25 C          62.7334   84.2578   11.4084 C.ar    1  UNL1        0.0111
     26 C          61.8537   85.4717   11.4589 C.ar    1  UNL1       -0.0026
     27 C          60.0728   87.9884    9.0512 C.ar    1  UNL1        0.0286
     28 C          60.2964   89.3732    8.5198 C.ar    1  UNL1        0.0987
     29 N          59.5751   89.8287    7.2860 N.ar    1  UNL1       -0.2227
     30 C          58.6302   88.8993    6.5835 C.ar    1  UNL1        0.1989
     31 N          58.4066   87.5145    7.1149 N.ar    1  UNL1       -0.2227
     32 C          59.1279   87.0591    8.3488 C.ar    1  UNL1        0.0987
@<TRIPOS>BOND
     1    15    16    1
     2    16    17    2
     3    16    18    2
     4    16     9    1
     5     9    10   ar
     6    10    11   ar
     7    11    12   ar
     8    12     1    1
     9     1     2    1
    10     2     3    1
    11     3     4    1
    12     4     5   am
    13     5     6    2
    14     5    19    1
    15    19    20    1
    16    20    21   ar
    17    21    22   ar
    18    22    23   ar
    19    23    24    1
    20    23    25   ar
    21    25    26   ar
    22    19    27    1
    23    27    28   ar
    24    28    29   ar
    25    29    30   ar
    26    30    31   ar
    27    31    32   ar
    28     4     7    1
    29     7     8    1
    30    12    13   ar
    31    13    14   ar
    32    14     9   ar
    33     8     1    1
    34    26    20   ar
    35    32    27   ar
@<TRIPOS>MOLECULE
*****
 32 35 0 0 0
SMALL
GASTEIGER

@<TRIPOS>ATOM
      1 N          61.4118   86.6497    9.2755 N.pl3   1  UNL1       -0.3041
      2 C          60.9412   86.3534   10.6686 C.3     1  UNL1        0.1123
      3 C          61.6983   85.3826   11.5255 C.3     1  UNL1        0.1148
      4 N          62.9261   84.7081   10.9894 N.am    1  UNL1       -0.2755
      5 C          63.6832   83.7373   11.8463 C.2     1  UNL1        0.2336
      6 O          64.9110   83.0627   11.3101 O.2     1  UNL1       -0.2742
      7 C          63.3967   85.0043    9.5963 C.3     1  UNL1        0.1148
      8 C          62.6396   85.9751    8.7394 C.3     1  UNL1        0.1123
      9 C          59.1405   89.5621    6.7048 C.ar    1  UNL1        0.1058
     10 C          59.0290   88.0887    6.4469 C.ar    1  UNL1        0.0196
     11 C          59.7861   87.1179    7.3038 C.ar    1  UNL1        0.0158
     12 C          60.6547   87.6205    8.4186 C.ar    1  UNL1        0.0480
     13 C          60.7662   89.0939    8.6765 C.ar    1  UNL1        0.0158
     14 C          60.0091   90.0647    7.8196 C.ar    1  UNL1        0.0196
     15 C          57.6263   91.5037    4.9909 C.3     1  UNL1        0.1816
     16 S          58.3834   90.5329    5.8479 S.O2    1  UNL1        0.0105
     17 O          57.0886   89.9795    6.3649 O.2     1  UNL1       -0.1686
     18 O          59.6781   91.0863    5.3309 O.2     1  UNL1       -0.1686
     19 C          63.2126   83.4410   13.2393 C.3     1  UNL1        0.1241
     20 C          63.2229   84.5212   14.2801 C.ar    1  UNL1       -0.0096
     21 C          62.3045   84.4320   15.4628 C.ar    1  UNL1       -0.0026
     22 C          62.3148   85.5121   16.5035 C.ar    1  UNL1        0.0111
     23 C          63.2436   86.6815   16.3616 C.ar    1  UNL1        0.0577
     24 CL         63.2540   87.7616   17.4024 Cl      1  UNL1       -0.0822
     25 C          64.1620   86.7706   15.1790 C.ar    1  UNL1        0.0111
     26 C          64.1516   85.6905   14.1382 C.ar    1  UNL1       -0.0026
     27 C          62.7315   82.0646   13.5917 C.ar    1  UNL1        0.0286
     28 C          63.7159   80.9440   13.7511 C.ar    1  UNL1        0.0987
     29 N          63.2350   79.5677   14.1035 N.ar    1  UNL1       -0.2227
     30 C          61.7696   79.3118   14.2965 C.ar    1  UNL1        0.1989
     31 N          60.7852   80.4323   14.1371 N.ar    1  UNL1       -0.2227
     32 C          61.2662   81.8087   13.7847 C.ar    1  UNL1        0.0987
@<TRIPOS>BOND
     1    15    16    1
     2    16    17    2
     3    16    18    2
     4    16     9    1
     5     9    10   ar
     6    10    11   ar
     7    11    12   ar
     8    12     1    1
     9     1     2    1
    10     2     3    1
    11     3     4    1
    12     4     5   am
    13     5     6    2
    14     5    19    1
    15    19    20    1
    16    20    21   ar
    17    21    22   ar
    18    22    23   ar
    19    23    24    1
    20    23    25   ar
    21    25    26   ar
    22    19    27    1
    23    27    28   ar
    24    28    29   ar
    25    29    30   ar
    26    30    31   ar
    27    31    32   ar
    28     4     7    1
    29     7     8    1
    30    12    13   ar
    31    13    14   ar
    32    14     9   ar
    33     8     1    1
    34    26    20   ar
    35    32    27   ar
@<TRIPOS>MOLECULE
*****
 32 35 0 0 0
SMALL
GASTEIGER

@<TRIPOS>ATOM
      1 N          62.1960   93.5976   -0.1075 N.pl3   1  UNL1       -0.3041
      2 C          61.7561   93.1404   -1.4667 C.3     1  UNL1        0.1123
      3 C          62.4507   93.6555   -2.6924 C.3     1  UNL1        0.1148
      4 N          63.5851   94.6277   -2.5589 N.am    1  UNL1       -0.2755
      5 C          64.2796   95.1428   -3.7846 C.2     1  UNL1        0.2336
      6 O          65.4140   96.1150   -3.6511 O.2     1  UNL1       -0.2742
      7 C          64.0249   95.0849   -1.1997 C.3     1  UNL1        0.1148
      8 C          63.3304   94.5698    0.0260 C.3     1  UNL1        0.1123
      9 C          60.1123   92.0525    3.5696 C.ar    1  UNL1        0.1058
     10 C          59.3218   92.7230    2.4855 C.ar    1  UNL1        0.0196
     11 C          60.0163   93.2381    1.2598 C.ar    1  UNL1        0.0158
     12 C          61.5014   93.0826    1.1182 C.ar    1  UNL1        0.0480
     13 C          62.2920   92.4120    2.2023 C.ar    1  UNL1        0.0158
     14 C          61.5975   91.8969    3.4279 C.ar    1  UNL1        0.0196
     15 C          58.7233   91.0224    6.0210 C.3     1  UNL1        0.1816
     16 S          59.4178   91.5374    4.7953 S.O2    1  UNL1        0.0105
     17 O          58.1823   92.2983    4.4149 O.2     1  UNL1       -0.1686
     18 O          60.6533   90.7765    5.1756 O.2     1  UNL1       -0.1686
     19 C          63.8398   94.6856   -5.1438 C.3     1  UNL1        0.1241
     20 C          62.5580   95.1994   -5.7295 C.ar    1  UNL1       -0.0096
     21 C          61.8390   96.3416   -5.0748 C.ar    1  UNL1       -0.0026
     22 C          60.5573   96.8554   -5.6605 C.ar    1  UNL1        0.0111
     23 C          59.9945   96.2271   -6.9010 C.ar    1  UNL1        0.0577
     24 CL         58.7128   96.7410   -7.4867 Cl      1  UNL1       -0.0822
     25 C          60.7135   95.0850   -7.5556 C.ar    1  UNL1        0.0111
     26 C          61.9953   94.5712   -6.9699 C.ar    1  UNL1       -0.0026
     27 C          64.6817   93.7145   -5.9173 C.ar    1  UNL1        0.0286
     28 C          65.7962   94.2154   -6.7874 C.ar    1  UNL1        0.0987
     29 N          66.6381   93.2444   -7.5610 N.ar    1  UNL1       -0.2227
     30 C          66.3655   91.7725   -7.4644 C.ar    1  UNL1        0.1989
     31 N          65.2510   91.2717   -6.5943 N.ar    1  UNL1       -0.2227
     32 C          64.4091   92.2427   -5.8208 C.ar    1  UNL1        0.0987
@<TRIPOS>BOND
     1    15    16    1
     2    16    17    2
     3    16    18    2
     4    16     9    1
     5     9    10   ar
     6    10    11   ar
     7    11    12   ar
     8    12     1    1
     9     1     2    1
    10     2     3    1
    11     3     4    1
    12     4     5   am
    13     5     6    2
    14     5    19    1
    15    19    20    1
    16    20    21   ar
    17    21    22   ar
    18    22    23   ar
    19    23    24    1
    20    23    25   ar
    21    25    26   ar
    22    19    27    1
    23    27    28   ar
    24    28    29   ar
    25    29    30   ar
    26    30    31   ar
    27    31    32   ar
    28     4     7    1
    29     7     8    1
    30    12    13   ar
    31    13    14   ar
    32    14     9   ar
    33     8     1    1
    34    26    20   ar
    35    32    27   ar
