@<TRIPOS>MOLECULE
*****
 37 40 0 0 0
SMALL
GASTEIGER

@<TRIPOS>ATOM
      1 C          65.6190   92.2056   14.2864 C.ar    1  UNL1        0.1504
      2 N          65.5915   90.8499   13.6452 N.ar    1  UNL1       -0.2108
      3 C          64.5892   90.0099   14.3798 C.ar    1  UNL1        0.1686
      4 C          63.9972   90.8465   15.4752 C.ar    1  UNL1        0.1113
      5 N          64.6337   92.2035   15.4174 N.ar    1  UNL1       -0.3362
      6 H          64.4389   92.9600   16.0167 H       1  UNL1        0.1673
      7 N          64.2401   88.5837   14.0730 N.ar    1  UNL1       -0.2565
      8 C          64.6562   87.4909   15.0125 C.ar    1  UNL1        0.0857
      9 C          64.3072   86.0647   14.7058 C.ar    1  UNL1        0.0340
     10 C          63.5419   85.7313   13.4594 C.ar    1  UNL1        0.0569
     11 C          63.1258   86.8241   12.5199 C.ar    1  UNL1        0.0758
     12 C          63.4749   88.2503   12.8267 C.ar    1  UNL1        0.2672
     13 O          63.0588   89.3431   11.8872 O.2     1  UNL1       -0.2665
     14 N          63.1928   84.3051   13.1526 N.am    1  UNL1       -0.2790
     15 C          62.6564   83.4150   14.2343 C.2     1  UNL1        0.2678
     16 O          62.4691   83.9509   15.6226 O.2     1  UNL1       -0.2681
     17 H          63.3157   83.9532   12.2414 H       1  UNL1        0.1552
     18 C          62.3073   81.9888   13.9274 C.ar    1  UNL1        0.1419
     19 C          63.1372   81.0309   13.1250 C.ar    1  UNL1        0.0607
     20 S          62.4098   79.7202   13.0708 S.2     1  UNL1       -0.0638
     21 C          61.1304   79.8680   13.8398 C.ar    1  UNL1        0.1347
     22 N          61.0671   81.2700   14.3692 N.ar    1  UNL1       -0.2317
     23 C          66.4806   93.3606   13.8699 C.3     1  UNL1        0.1932
     24 C          66.5692   93.7468   12.4231 C.ar    1  UNL1        0.0117
     25 C          65.8588   94.9719   11.9290 C.ar    1  UNL1       -0.0015
     26 C          65.9474   95.3580   10.4823 C.ar    1  UNL1       -0.0003
     27 C          66.7464   94.5189    9.5297 C.ar    1  UNL1        0.0038
     28 C          67.4569   93.2938   10.0238 C.ar    1  UNL1        0.0712
     29 C          67.3682   92.9077   11.4705 C.ar    1  UNL1        0.0023
     30 C          68.2559   92.4547    9.0711 C.3     1  UNL1        0.4186
     31 F          69.0549   91.6156    8.1185 F       1  UNL1       -0.1659
     32 F          68.1728   93.5433    8.0425 F       1  UNL1       -0.1659
     33 F          68.3390   91.3661   10.0998 F       1  UNL1       -0.1659
     34 O          67.2536   94.1295   14.9000 O.3     1  UNL1       -0.3467
     35 C          69.5912   94.2667   16.0256 C.3     1  UNL1        0.0321
     36 C          68.3805   93.4703   15.6386 C.3     1  UNL1        0.1163
     37 C          68.2965   92.0144   15.9904 C.3     1  UNL1        0.0321
@<TRIPOS>BOND
     1    35    36    1
     2    36    37    1
     3    36    34    1
     4    34    23    1
     5    23    24    1
     6    24    25   ar
     7    25    26   ar
     8    26    27   ar
     9    27    28   ar
    10    28    30    1
    11    30    31    1
    12    30    32    1
    13    30    33    1
    14    28    29   ar
    15    23     1    1
    16     1     2   ar
    17     2     3   ar
    18     3     7    1
    19     7     8   ar
    20     8     9   ar
    21     9    10   ar
    22    10    14    1
    23    14    15   am
    24    15    16    2
    25    15    18    1
    26    18    19   ar
    27    19    20   ar
    28    20    21   ar
    29    21    22   ar
    30    10    11   ar
    31    11    12   ar
    32    12    13    2
    33     3     4   ar
    34     4     5   ar
    35    29    24   ar
    36     5     1   ar
    37    12     7   ar
    38    22    18   ar
    39    14    17    1
    40     5     6    1
@<TRIPOS>MOLECULE
*****
 37 40 0 0 0
SMALL
GASTEIGER

@<TRIPOS>ATOM
      1 C          59.9288   87.9448    8.7275 C.ar    1  UNL1        0.1504
      2 N          60.3255   89.2023    8.0125 N.ar    1  UNL1       -0.2108
      3 C          59.5061   89.3015    6.7600 C.ar    1  UNL1        0.1686
      4 C          58.6030   88.1052    6.7009 C.ar    1  UNL1        0.1113
      5 N          58.8642   87.2667    7.9169 N.ar    1  UNL1       -0.3362
      6 H          58.4157   86.4201    8.1432 H       1  UNL1        0.1673
      7 N          59.5773   90.4034    5.7447 N.ar    1  UNL1       -0.2565
      8 C          60.9046   90.8252    5.1876 C.ar    1  UNL1        0.0857
      9 C          60.9759   91.9272    4.1723 C.ar    1  UNL1        0.0340
     10 C          59.7198   92.6073    3.7143 C.ar    1  UNL1        0.0569
     11 C          58.3926   92.1855    4.2714 C.ar    1  UNL1        0.0758
     12 C          58.3213   91.0835    5.2867 C.ar    1  UNL1        0.2672
     13 O          56.9941   90.6617    5.8438 O.2     1  UNL1       -0.2665
     14 N          59.7910   93.7093    2.6991 N.am    1  UNL1       -0.2790
     15 C          59.9990   93.3817    1.2501 C.2     1  UNL1        0.2678
     16 O          60.1358   91.9523    0.8164 O.2     1  UNL1       -0.2681
     17 H          59.7013   94.6474    2.9837 H       1  UNL1        0.1552
     18 C          60.0703   94.4837    0.2349 C.ar    1  UNL1        0.1419
     19 C          61.1938   94.7224   -0.7299 C.ar    1  UNL1        0.0607
     20 S          60.8484   95.9266   -1.5548 S.2     1  UNL1       -0.0638
     21 C          59.5114   96.4321   -1.0999 C.ar    1  UNL1        0.1347
     22 N          59.0305   95.5403    0.0061 N.ar    1  UNL1       -0.2317
     23 C          60.4968   87.4518   10.0253 C.3     1  UNL1        0.1932
     24 C          61.4997   86.3362   10.0295 C.ar    1  UNL1        0.0117
     25 C          62.2239   85.9741    8.7669 C.ar    1  UNL1       -0.0015
     26 C          63.2267   84.8585    8.7711 C.ar    1  UNL1       -0.0003
     27 C          63.5051   84.1052   10.0379 C.ar    1  UNL1        0.0038
     28 C          62.7809   84.4673   11.3005 C.ar    1  UNL1        0.0712
     29 C          61.7781   85.5829   11.2963 C.ar    1  UNL1        0.0023
     30 C          63.0593   83.7140   12.5674 C.3     1  UNL1        0.4186
     31 F          63.3378   82.9606   13.8342 F       1  UNL1       -0.1659
     32 F          63.7865   84.9057   13.1162 F       1  UNL1       -0.1659
     33 F          62.3322   82.5223   12.0186 F       1  UNL1       -0.1659
     34 O          60.0622   88.0744   11.3189 O.3     1  UNL1       -0.3467
     35 C          61.8275   89.8579   11.9915 C.3     1  UNL1        0.0321
     36 C          60.4185   89.4995   11.6224 C.3     1  UNL1        0.1163
     37 C          59.3659   90.5661   11.5570 C.3     1  UNL1        0.0321
@<TRIPOS>BOND
     1    35    36    1
     2    36    37    1
     3    36    34    1
     4    34    23    1
     5    23    24    1
     6    24    25   ar
     7    25    26   ar
     8    26    27   ar
     9    27    28   ar
    10    28    30    1
    11    30    31    1
    12    30    32    1
    13    30    33    1
    14    28    29   ar
    15    23     1    1
    16     1     2   ar
    17     2     3   ar
    18     3     7    1
    19     7     8   ar
    20     8     9   ar
    21     9    10   ar
    22    10    14    1
    23    14    15   am
    24    15    16    2
    25    15    18    1
    26    18    19   ar
    27    19    20   ar
    28    20    21   ar
    29    21    22   ar
    30    10    11   ar
    31    11    12   ar
    32    12    13    2
    33     3     4   ar
    34     4     5   ar
    35    29    24   ar
    36     5     1   ar
    37    12     7   ar
    38    22    18   ar
    39    14    17    1
    40     5     6    1
@<TRIPOS>MOLECULE
*****
 37 40 0 0 0
SMALL
GASTEIGER

@<TRIPOS>ATOM
      1 C          65.2198   91.3204   14.4499 C.ar    1  UNL1        0.1504
      2 N          65.3034   89.9545   13.8357 N.ar    1  UNL1       -0.2108
      3 C          64.1593   89.1392   14.3612 C.ar    1  UNL1        0.1686
      4 C          63.3686   90.0012   15.3003 C.ar    1  UNL1        0.1113
      5 N          64.0241   91.3493   15.3551 N.ar    1  UNL1       -0.3362
      6 H          63.7224   92.1180   15.8911 H       1  UNL1        0.1673
      7 N          63.8586   87.7123   14.0095 N.ar    1  UNL1       -0.2565
      8 C          64.3351   86.6038   14.9006 C.ar    1  UNL1        0.0857
      9 C          64.0344   85.1769   14.5489 C.ar    1  UNL1        0.0340
     10 C          63.2572   84.8586   13.3060 C.ar    1  UNL1        0.0569
     11 C          62.7807   85.9672   12.4149 C.ar    1  UNL1        0.0758
     12 C          63.0814   87.3940   12.7667 C.ar    1  UNL1        0.2672
     13 O          62.6049   88.5026   11.8756 O.2     1  UNL1       -0.2665
     14 N          62.9565   83.4318   12.9543 N.am    1  UNL1       -0.2790
     15 C          63.5120   82.8370   11.6942 C.2     1  UNL1        0.2678
     16 O          64.3681   83.6689   10.7860 O.2     1  UNL1       -0.2681
     17 H          62.3946   82.8857   13.5504 H       1  UNL1        0.1552
     18 C          63.2113   81.4101   11.3425 C.ar    1  UNL1        0.1419
     19 C          63.2243   80.8205    9.9632 C.ar    1  UNL1        0.0607
     20 S          62.8659   79.3684   10.0766 S.2     1  UNL1       -0.0638
     21 C          62.6314   79.0605   11.5258 C.ar    1  UNL1        0.1347
     22 N          62.8449   80.3224   12.3082 N.ar    1  UNL1       -0.2317
     23 C          66.1659   92.4578   14.2024 C.3     1  UNL1        0.1932
     24 C          66.6745   92.7223   12.8162 C.ar    1  UNL1        0.0117
     25 C          67.6706   91.7904   12.1923 C.ar    1  UNL1       -0.0015
     26 C          68.1792   92.0549   10.8062 C.ar    1  UNL1       -0.0003
     27 C          67.6916   93.2512   10.0440 C.ar    1  UNL1        0.0038
     28 C          66.6954   94.1831   10.6679 C.ar    1  UNL1        0.0712
     29 C          66.1869   93.9186   12.0540 C.ar    1  UNL1        0.0023
     30 C          66.2078   95.3795    9.9057 C.3     1  UNL1        0.4186
     31 F          65.7202   96.5758    9.1435 F       1  UNL1       -0.1659
     32 F          64.9612   95.4026   10.7395 F       1  UNL1       -0.1659
     33 F          67.4545   95.3563    9.0719 F       1  UNL1       -0.1659
     34 O          66.6035   93.3307   15.3411 O.3     1  UNL1       -0.3467
     35 C          68.8859   94.4712   15.8307 C.3     1  UNL1        0.0321
     36 C          68.0129   93.2515   15.8482 C.3     1  UNL1        0.1163
     37 C          68.5494   91.9526   16.3728 C.3     1  UNL1        0.0321
@<TRIPOS>BOND
     1    35    36    1
     2    36    37    1
     3    36    34    1
     4    34    23    1
     5    23    24    1
     6    24    25   ar
     7    25    26   ar
     8    26    27   ar
     9    27    28   ar
    10    28    30    1
    11    30    31    1
    12    30    32    1
    13    30    33    1
    14    28    29   ar
    15    23     1    1
    16     1     2   ar
    17     2     3   ar
    18     3     7    1
    19     7     8   ar
    20     8     9   ar
    21     9    10   ar
    22    10    14    1
    23    14    15   am
    24    15    16    2
    25    15    18    1
    26    18    19   ar
    27    19    20   ar
    28    20    21   ar
    29    21    22   ar
    30    10    11   ar
    31    11    12   ar
    32    12    13    2
    33     3     4   ar
    34     4     5   ar
    35    29    24   ar
    36     5     1   ar
    37    12     7   ar
    38    22    18   ar
    39    14    17    1
    40     5     6    1
@<TRIPOS>MOLECULE
*****
 37 40 0 0 0
SMALL
GASTEIGER

@<TRIPOS>ATOM
      1 C          63.0332   84.4944   13.0326 C.ar    1  UNL1        0.1504
      2 N          62.0353   85.4580   12.4620 N.ar    1  UNL1       -0.2108
      3 C          62.1193   85.3808   10.9663 C.ar    1  UNL1        0.1686
      4 C          63.1692   84.3696   10.6126 C.ar    1  UNL1        0.1113
      5 N          63.7340   83.8218   11.8896 N.ar    1  UNL1       -0.3362
      6 H          64.4407   83.1403   11.9645 H       1  UNL1        0.1673
      7 N          61.2976   86.1754    9.9949 N.ar    1  UNL1       -0.2565
      8 C          60.9312   85.5865    8.6650 C.ar    1  UNL1        0.0857
      9 C          60.1096   86.3810    7.6935 C.ar    1  UNL1        0.0340
     10 C          59.6544   87.7646    8.0522 C.ar    1  UNL1        0.0569
     11 C          60.0208   88.3535    9.3822 C.ar    1  UNL1        0.0758
     12 C          60.8424   87.5589   10.3535 C.ar    1  UNL1        0.2672
     13 O          61.2089   88.1479   11.6835 O.2     1  UNL1       -0.2665
     14 N          58.8328   88.5592    7.0808 N.am    1  UNL1       -0.2790
     15 C          59.3150   89.8998    6.6115 C.2     1  UNL1        0.2678
     16 O          60.6187   90.4458    7.1136 O.2     1  UNL1       -0.2681
     17 H          57.9770   88.2008    6.7512 H       1  UNL1        0.1552
     18 C          58.4933   90.6944    5.6401 C.ar    1  UNL1        0.1419
     19 C          59.0254   91.6059    4.5742 C.ar    1  UNL1        0.0607
     20 S          57.8563   92.1918    3.8395 S.2     1  UNL1       -0.0638
     21 C          56.6017   91.6424    4.4512 C.ar    1  UNL1        0.1347
     22 N          56.9955   90.7170    5.5641 N.ar    1  UNL1       -0.2317
     23 C          63.2860   84.2470   14.4903 C.3     1  UNL1        0.1932
     24 C          63.2077   85.3817   15.4683 C.ar    1  UNL1        0.0117
     25 C          62.6691   85.1465   16.8483 C.ar    1  UNL1       -0.0015
     26 C          62.5908   86.2812   17.8262 C.ar    1  UNL1       -0.0003
     27 C          63.0511   87.6510   17.4241 C.ar    1  UNL1        0.0038
     28 C          63.5897   87.8862   16.0440 C.ar    1  UNL1        0.0712
     29 C          63.6680   86.7515   15.0661 C.ar    1  UNL1        0.0023
     30 C          64.0500   89.2560   15.6419 C.3     1  UNL1        0.4186
     31 F          64.5103   90.6258   15.2398 F       1  UNL1       -0.1659
     32 F          63.4078   89.8320   16.8690 F       1  UNL1       -0.1659
     33 F          64.6921   88.6800   14.4148 F       1  UNL1       -0.1659
     34 O          63.6171   82.8649   14.9700 O.3     1  UNL1       -0.3467
     35 C          63.8814   80.7059   13.5492 C.3     1  UNL1        0.0321
     36 C          63.0089   81.6711   14.2956 C.3     1  UNL1        0.1163
     37 C          61.5281   81.4425   14.3675 C.3     1  UNL1        0.0321
@<TRIPOS>BOND
     1    35    36    1
     2    36    37    1
     3    36    34    1
     4    34    23    1
     5    23    24    1
     6    24    25   ar
     7    25    26   ar
     8    26    27   ar
     9    27    28   ar
    10    28    30    1
    11    30    31    1
    12    30    32    1
    13    30    33    1
    14    28    29   ar
    15    23     1    1
    16     1     2   ar
    17     2     3   ar
    18     3     7    1
    19     7     8   ar
    20     8     9   ar
    21     9    10   ar
    22    10    14    1
    23    14    15   am
    24    15    16    2
    25    15    18    1
    26    18    19   ar
    27    19    20   ar
    28    20    21   ar
    29    21    22   ar
    30    10    11   ar
    31    11    12   ar
    32    12    13    2
    33     3     4   ar
    34     4     5   ar
    35    29    24   ar
    36     5     1   ar
    37    12     7   ar
    38    22    18   ar
    39    14    17    1
    40     5     6    1
@<TRIPOS>MOLECULE
*****
 37 40 0 0 0
SMALL
GASTEIGER

@<TRIPOS>ATOM
      1 C          62.9898   84.6916   14.2040 C.ar    1  UNL1        0.1504
      2 N          63.1325   85.8682   13.2847 N.ar    1  UNL1       -0.2108
      3 C          63.5653   87.0473   14.1047 C.ar    1  UNL1        0.1686
      4 C          63.6903   86.5993   15.5308 C.ar    1  UNL1        0.1113
      5 N          63.3345   85.1434   15.5921 N.ar    1  UNL1       -0.3362
      6 H          63.3284   84.5828   16.4014 H       1  UNL1        0.1673
      7 N          63.8273   88.4313   13.5891 N.ar    1  UNL1       -0.2565
      8 C          64.7101   89.3653   14.3628 C.ar    1  UNL1        0.0857
      9 C          64.9721   90.7494   13.8473 C.ar    1  UNL1        0.0340
     10 C          64.3513   91.1995   12.5580 C.ar    1  UNL1        0.0569
     11 C          63.4686   90.2655   11.7844 C.ar    1  UNL1        0.0758
     12 C          63.2066   88.8815   12.2999 C.ar    1  UNL1        0.2672
     13 O          62.3239   87.9475   11.5263 O.2     1  UNL1       -0.2665
     14 N          64.6133   92.5835   12.0425 N.am    1  UNL1       -0.2790
     15 C          66.0234   93.0605   11.8577 C.2     1  UNL1        0.2678
     16 O          67.1715   92.1536   12.1885 O.2     1  UNL1       -0.2681
     17 H          63.8599   93.1788   11.8253 H       1  UNL1        0.1552
     18 C          66.2854   94.4446   11.3422 C.ar    1  UNL1        0.1419
     19 C          66.6844   94.8028    9.9412 C.ar    1  UNL1        0.0607
     20 S          66.8400   96.2930    9.8703 S.2     1  UNL1       -0.0638
     21 C          66.5372   96.8558   11.2274 C.ar    1  UNL1        0.1347
     22 N          66.1945   95.7134   12.1370 N.ar    1  UNL1       -0.2317
     23 C          62.5752   83.3063   13.8051 C.3     1  UNL1        0.1932
     24 C          63.0363   82.7325   12.4981 C.ar    1  UNL1        0.0117
     25 C          63.9293   83.5358   11.5997 C.ar    1  UNL1       -0.0015
     26 C          64.3904   82.9620   10.2927 C.ar    1  UNL1       -0.0003
     27 C          63.9584   81.5849    9.8842 C.ar    1  UNL1        0.0038
     28 C          63.0654   80.7815   10.7826 C.ar    1  UNL1        0.0712
     29 C          62.6044   81.3554   12.0896 C.ar    1  UNL1        0.0023
     30 C          62.6335   79.4044   10.3741 C.3     1  UNL1        0.4186
     31 F          62.2016   78.0272    9.9656 F       1  UNL1       -0.1659
     32 F          62.6833   78.9637   11.8070 F       1  UNL1       -0.1659
     33 F          62.5837   79.8451    8.9412 F       1  UNL1       -0.1659
     34 O          61.6995   82.4948   14.7132 O.3     1  UNL1       -0.3467
     35 C          62.6280   80.0796   14.4794 C.3     1  UNL1        0.0321
     36 C          61.4752   81.0382   14.4340 C.3     1  UNL1        0.1163
     37 C          60.0980   80.5402   14.1094 C.3     1  UNL1        0.0321
@<TRIPOS>BOND
     1    35    36    1
     2    36    37    1
     3    36    34    1
     4    34    23    1
     5    23    24    1
     6    24    25   ar
     7    25    26   ar
     8    26    27   ar
     9    27    28   ar
    10    28    30    1
    11    30    31    1
    12    30    32    1
    13    30    33    1
    14    28    29   ar
    15    23     1    1
    16     1     2   ar
    17     2     3   ar
    18     3     7    1
    19     7     8   ar
    20     8     9   ar
    21     9    10   ar
    22    10    14    1
    23    14    15   am
    24    15    16    2
    25    15    18    1
    26    18    19   ar
    27    19    20   ar
    28    20    21   ar
    29    21    22   ar
    30    10    11   ar
    31    11    12   ar
    32    12    13    2
    33     3     4   ar
    34     4     5   ar
    35    29    24   ar
    36     5     1   ar
    37    12     7   ar
    38    22    18   ar
    39    14    17    1
    40     5     6    1
@<TRIPOS>MOLECULE
*****
 37 40 0 0 0
SMALL
GASTEIGER

@<TRIPOS>ATOM
      1 C          65.3387   91.6723   15.1618 C.ar    1  UNL1        0.1504
      2 N          65.4187   90.2186   14.8006 N.ar    1  UNL1       -0.2108
      3 C          64.2481   89.5203   15.4268 C.ar    1  UNL1        0.1686
      4 C          63.4446   90.5425   16.1750 C.ar    1  UNL1        0.1113
      5 N          64.1187   91.8724   16.0112 N.ar    1  UNL1       -0.3362
      6 H          63.8139   92.7267   16.3940 H       1  UNL1        0.1673
      7 N          63.9358   88.0569   15.3230 N.ar    1  UNL1       -0.2565
      8 C          64.2367   87.3138   14.0552 C.ar    1  UNL1        0.0857
      9 C          63.9245   85.8503   13.9513 C.ar    1  UNL1        0.0340
     10 C          63.3111   85.1299   15.1154 C.ar    1  UNL1        0.0569
     11 C          63.0102   85.8730   16.3832 C.ar    1  UNL1        0.0758
     12 C          63.3225   87.3365   16.4870 C.ar    1  UNL1        0.2672
     13 O          63.0215   88.0796   17.7547 O.2     1  UNL1       -0.2665
     14 N          62.9988   83.6665   15.0116 N.am    1  UNL1       -0.2790
     15 C          62.5725   83.0820   13.6976 C.2     1  UNL1        0.2678
     16 O          62.4585   83.9608   12.4874 O.2     1  UNL1       -0.2681
     17 H          63.0736   83.0896   15.8059 H       1  UNL1        0.1552
     18 C          62.2602   81.6185   13.5938 C.ar    1  UNL1        0.1419
     19 C          63.0489   80.6011   12.8237 C.ar    1  UNL1        0.0607
     20 S          62.3804   79.2693   12.9959 S.2     1  UNL1       -0.0638
     21 C          61.1787   79.4637   13.8723 C.ar    1  UNL1        0.1347
     22 N          61.1044   80.9155   14.2419 N.ar    1  UNL1       -0.2317
     23 C          66.3085   92.7385   14.7464 C.3     1  UNL1        0.1932
     24 C          66.6260   92.9392   13.2942 C.ar    1  UNL1        0.0117
     25 C          67.4109   91.9016   12.5477 C.ar    1  UNL1       -0.0015
     26 C          67.7283   92.1024   11.0955 C.ar    1  UNL1       -0.0003
     27 C          67.2609   93.3407   10.3898 C.ar    1  UNL1        0.0038
     28 C          66.4759   94.3783   11.1363 C.ar    1  UNL1        0.0712
     29 C          66.1585   94.1775   12.5884 C.ar    1  UNL1        0.0023
     30 C          66.0085   95.6166   10.4305 C.3     1  UNL1        0.4186
     31 F          65.5410   96.8549    9.7248 F       1  UNL1       -0.1659
     32 F          65.5821   94.7864    9.2562 F       1  UNL1       -0.1659
     33 F          66.4348   96.4468   11.6048 F       1  UNL1       -0.1659
     34 O          66.9608   93.6042   15.7833 O.3     1  UNL1       -0.3467
     35 C          69.2935   94.7129   16.0651 C.3     1  UNL1        0.0321
     36 C          68.4334   93.4842   16.0420 C.3     1  UNL1        0.1163
     37 C          69.0461   92.1354   16.2777 C.3     1  UNL1        0.0321
@<TRIPOS>BOND
     1    35    36    1
     2    36    37    1
     3    36    34    1
     4    34    23    1
     5    23    24    1
     6    24    25   ar
     7    25    26   ar
     8    26    27   ar
     9    27    28   ar
    10    28    30    1
    11    30    31    1
    12    30    32    1
    13    30    33    1
    14    28    29   ar
    15    23     1    1
    16     1     2   ar
    17     2     3   ar
    18     3     7    1
    19     7     8   ar
    20     8     9   ar
    21     9    10   ar
    22    10    14    1
    23    14    15   am
    24    15    16    2
    25    15    18    1
    26    18    19   ar
    27    19    20   ar
    28    20    21   ar
    29    21    22   ar
    30    10    11   ar
    31    11    12   ar
    32    12    13    2
    33     3     4   ar
    34     4     5   ar
    35    29    24   ar
    36     5     1   ar
    37    12     7   ar
    38    22    18   ar
    39    14    17    1
    40     5     6    1
@<TRIPOS>MOLECULE
*****
 37 40 0 0 0
SMALL
GASTEIGER

@<TRIPOS>ATOM
      1 C          60.9833   94.8104   -1.4766 C.ar    1  UNL1        0.1504
      2 N          60.9921   93.5955   -0.5968 N.ar    1  UNL1       -0.2108
      3 C          60.9451   94.0561    0.8300 C.ar    1  UNL1        0.1686
      4 C          60.9071   95.5556    0.8320 C.ar    1  UNL1        0.1113
      5 N          60.9307   96.0218   -0.5935 N.ar    1  UNL1       -0.3362
      6 H          60.9146   96.9584   -0.8964 H       1  UNL1        0.1673
      7 N          60.9373   93.1723    2.0419 N.ar    1  UNL1       -0.2565
      8 C          59.6972   93.0565    2.8778 C.ar    1  UNL1        0.0857
      9 C          59.6894   92.1727    4.0898 C.ar    1  UNL1        0.0340
     10 C          60.9218   91.4047    4.4659 C.ar    1  UNL1        0.0569
     11 C          62.1619   91.5205    3.6300 C.ar    1  UNL1        0.0758
     12 C          62.1697   92.4043    2.4180 C.ar    1  UNL1        0.2672
     13 O          63.4098   92.5201    1.5821 O.2     1  UNL1       -0.2665
     14 N          60.9141   90.5209    5.6779 N.am    1  UNL1       -0.2790
     15 C          59.6226   89.9436    6.1768 C.2     1  UNL1        0.2678
     16 O          58.3390   90.2502    5.4639 O.2     1  UNL1       -0.2681
     17 H          61.7566   90.3197    6.1458 H       1  UNL1        0.1552
     18 C          59.6149   89.0598    7.3888 C.ar    1  UNL1        0.1419
     19 C          60.1814   89.4038    8.7345 C.ar    1  UNL1        0.0607
     20 S          59.9559   88.2335    9.6452 S.2     1  UNL1       -0.0638
     21 C          59.2500   87.1662    8.8624 C.ar    1  UNL1        0.1347
     22 N          59.0392   87.6770    7.4679 N.ar    1  UNL1       -0.2317
     23 C          61.0204   94.8133   -2.9761 C.3     1  UNL1        0.1932
     24 C          59.8584   94.2736   -3.7562 C.ar    1  UNL1        0.0117
     25 C          59.7359   94.5706   -5.2213 C.ar    1  UNL1       -0.0015
     26 C          58.5739   94.0309   -6.0013 C.ar    1  UNL1       -0.0003
     27 C          57.5345   93.1941   -5.3162 C.ar    1  UNL1        0.0038
     28 C          57.6570   92.8971   -3.8511 C.ar    1  UNL1        0.0712
     29 C          58.8190   93.4368   -3.0710 C.ar    1  UNL1        0.0023
     30 C          56.6176   92.0603   -3.1660 C.3     1  UNL1        0.4186
     31 F          55.5781   91.2236   -2.4808 F       1  UNL1       -0.1659
     32 F          57.0570   90.8653   -3.9589 F       1  UNL1       -0.1659
     33 F          56.1781   93.2554   -2.3730 F       1  UNL1       -0.1659
     34 O          62.2195   95.3560   -3.6955 O.3     1  UNL1       -0.3467
     35 C          64.8061   95.4276   -3.4624 C.3     1  UNL1        0.0321
     36 C          63.5358   94.6425   -3.6036 C.3     1  UNL1        0.1163
     37 C          63.5817   93.1440   -3.6527 C.3     1  UNL1        0.0321
@<TRIPOS>BOND
     1    35    36    1
     2    36    37    1
     3    36    34    1
     4    34    23    1
     5    23    24    1
     6    24    25   ar
     7    25    26   ar
     8    26    27   ar
     9    27    28   ar
    10    28    30    1
    11    30    31    1
    12    30    32    1
    13    30    33    1
    14    28    29   ar
    15    23     1    1
    16     1     2   ar
    17     2     3   ar
    18     3     7    1
    19     7     8   ar
    20     8     9   ar
    21     9    10   ar
    22    10    14    1
    23    14    15   am
    24    15    16    2
    25    15    18    1
    26    18    19   ar
    27    19    20   ar
    28    20    21   ar
    29    21    22   ar
    30    10    11   ar
    31    11    12   ar
    32    12    13    2
    33     3     4   ar
    34     4     5   ar
    35    29    24   ar
    36     5     1   ar
    37    12     7   ar
    38    22    18   ar
    39    14    17    1
    40     5     6    1
