@<TRIPOS>MOLECULE
*****
 17 18 0 0 0
SMALL
GASTEIGER

@<TRIPOS>ATOM
      1 C          62.9045   84.5071   10.2673 C.2     1  UNL1        0.0436
      2 C          62.2062   85.6426   10.9550 C.2     1  UNL1        0.0042
      3 C          61.5032   86.6915   10.1451 C.ar    1  UNL1        0.0107
      4 C          60.5713   86.2873    9.0415 C.ar    1  UNL1        0.0008
      5 C          59.8683   87.3362    8.2317 C.ar    1  UNL1        0.0001
      6 C          60.0973   88.7891    8.5256 C.ar    1  UNL1        0.0009
      7 C          61.0292   89.1933    9.6292 C.ar    1  UNL1        0.0114
      8 C          61.7322   88.1445   10.4390 C.ar    1  UNL1        0.0576
      9 CL         62.6641   88.5486   11.5428 Cl      1  UNL1       -0.0822
     10 O          64.8994   82.8738   10.5880 O.2     1  UNL1       -0.2850
     11 C          63.6075   83.4582   11.0772 C.2     1  UNL1        0.2111
     12 C          63.0185   82.9938   12.3762 C.ar    1  UNL1        0.0961
     13 C          62.2788   81.7082   12.5992 C.ar    1  UNL1        0.0218
     14 C          61.8689   81.6533   14.0411 C.ar    1  UNL1        0.0200
     15 C          62.3554   82.9051   14.7092 C.ar    1  UNL1        0.0725
     16 N          63.0659   83.7336   13.6802 N.ar    1  UNL1       -0.3495
     17 H          63.4890   84.6091   13.8338 H       1  UNL1        0.1661
@<TRIPOS>BOND
     1    10    11    2
     2    11     1    1
     3     1     2    2
     4     2     3    1
     5     3     4   ar
     6     4     5   ar
     7     5     6   ar
     8     6     7   ar
     9     7     8   ar
    10     8     9    1
    11    11    12    1
    12    12    13   ar
    13    13    14   ar
    14    14    15   ar
    15    15    16   ar
    16     8     3   ar
    17    16    12   ar
    18    16    17    1
@<TRIPOS>MOLECULE
*****
 17 18 0 0 0
SMALL
GASTEIGER

@<TRIPOS>ATOM
      1 C          63.4670   84.8274   14.2337 C.2     1  UNL1        0.0436
      2 C          64.1765   85.5584   15.3347 C.2     1  UNL1        0.0042
      3 C          63.9522   87.0294   15.5244 C.ar    1  UNL1        0.0107
      4 C          64.4449   88.0021   14.4943 C.ar    1  UNL1        0.0008
      5 C          64.2206   89.4731   14.6840 C.ar    1  UNL1        0.0001
      6 C          63.5038   89.9713   15.9037 C.ar    1  UNL1        0.0009
      7 C          63.0111   88.9986   16.9338 C.ar    1  UNL1        0.0114
      8 C          63.2354   87.5277   16.7441 C.ar    1  UNL1        0.0576
      9 CL         62.7427   86.5549   17.7743 Cl      1  UNL1       -0.0822
     10 O          63.9281   82.4743   15.2339 O.2     1  UNL1       -0.2850
     11 C          63.6912   83.3564   14.0440 C.2     1  UNL1        0.2111
     12 C          63.6786   82.7675   12.6645 C.ar    1  UNL1        0.0961
     13 C          64.3922   83.3167   11.4649 C.ar    1  UNL1        0.0218
     14 C          64.1048   82.4147   10.3014 C.ar    1  UNL1        0.0200
     15 C          63.2134   81.3080   10.7819 C.ar    1  UNL1        0.0725
     16 N          62.9500   81.5261   12.2424 N.ar    1  UNL1       -0.3495
     17 H          62.3962   80.9548   12.8222 H       1  UNL1        0.1661
@<TRIPOS>BOND
     1    10    11    2
     2    11     1    1
     3     1     2    2
     4     2     3    1
     5     3     4   ar
     6     4     5   ar
     7     5     6   ar
     8     6     7   ar
     9     7     8   ar
    10     8     9    1
    11    11    12    1
    12    12    13   ar
    13    13    14   ar
    14    14    15   ar
    15    15    16   ar
    16     8     3   ar
    17    16    12   ar
    18    16    17    1
@<TRIPOS>MOLECULE
*****
 17 18 0 0 0
SMALL
GASTEIGER

@<TRIPOS>ATOM
      1 C          62.5235   84.9120   10.9176 C.2     1  UNL1        0.0436
      2 C          62.4949   85.5917    9.5808 C.2     1  UNL1        0.0042
      3 C          61.7434   86.8786    9.4096 C.ar    1  UNL1        0.0107
      4 C          62.1325   88.0865   10.2092 C.ar    1  UNL1        0.0008
      5 C          61.3810   89.3733   10.0380 C.ar    1  UNL1        0.0001
      6 C          60.2402   89.4521    9.0671 C.ar    1  UNL1        0.0009
      7 C          59.8511   88.2442    8.2675 C.ar    1  UNL1        0.0114
      8 C          60.6026   86.9574    8.4388 C.ar    1  UNL1        0.0576
      9 CL         60.2135   85.7494    7.6391 Cl      1  UNL1       -0.0822
     10 O          64.4371   83.3105   10.1939 O.2     1  UNL1       -0.2850
     11 C          63.2751   83.6252   11.0888 C.2     1  UNL1        0.2111
     12 C          62.8647   82.6531   12.1549 C.ar    1  UNL1        0.0961
     13 C          62.7977   81.1617   12.0096 C.ar    1  UNL1        0.0218
     14 C          62.3409   80.5885   13.3184 C.ar    1  UNL1        0.0200
     15 C          62.1256   81.7258   14.2725 C.ar    1  UNL1        0.0725
     16 N          62.4493   83.0017   13.5534 N.ar    1  UNL1       -0.3495
     17 H          62.3981   83.9088   13.9328 H       1  UNL1        0.1661
@<TRIPOS>BOND
     1    10    11    2
     2    11     1    1
     3     1     2    2
     4     2     3    1
     5     3     4   ar
     6     4     5   ar
     7     5     6   ar
     8     6     7   ar
     9     7     8   ar
    10     8     9    1
    11    11    12    1
    12    12    13   ar
    13    13    14   ar
    14    14    15   ar
    15    15    16   ar
    16     8     3   ar
    17    16    12   ar
    18    16    17    1
@<TRIPOS>MOLECULE
*****
 17 18 0 0 0
SMALL
GASTEIGER

@<TRIPOS>ATOM
      1 C          63.6211   85.3885   13.4899 C.2     1  UNL1        0.0436
      2 C          62.7356   84.5655   12.6021 C.2     1  UNL1        0.0042
      3 C          62.6082   84.9057   11.1467 C.ar    1  UNL1        0.0107
      4 C          61.6277   85.9509   10.7039 C.ar    1  UNL1        0.0008
      5 C          61.5003   86.2911    9.2486 C.ar    1  UNL1        0.0001
      6 C          62.3533   85.5861    8.2360 C.ar    1  UNL1        0.0009
      7 C          63.3338   84.5408    8.6788 C.ar    1  UNL1        0.0114
      8 C          63.4612   84.2006   10.1341 C.ar    1  UNL1        0.0576
      9 CL         64.4417   83.1553   10.5770 Cl      1  UNL1       -0.0822
     10 O          64.2176   83.6847   15.3585 O.2     1  UNL1       -0.2850
     11 C          63.7486   85.0483   14.9453 C.2     1  UNL1        0.2111
     12 C          63.4071   86.0716   15.9875 C.ar    1  UNL1        0.0961
     13 C          62.8364   85.7902   17.3458 C.ar    1  UNL1        0.0218
     14 C          62.6530   87.1007   18.0521 C.ar    1  UNL1        0.0200
     15 C          63.1103   88.1921   17.1303 C.ar    1  UNL1        0.0725
     16 N          63.5764   87.5561   15.8543 N.ar    1  UNL1       -0.3495
     17 H          63.9311   88.0298   15.0675 H       1  UNL1        0.1661
@<TRIPOS>BOND
     1    10    11    2
     2    11     1    1
     3     1     2    2
     4     2     3    1
     5     3     4   ar
     6     4     5   ar
     7     5     6   ar
     8     6     7   ar
     9     7     8   ar
    10     8     9    1
    11    11    12    1
    12    12    13   ar
    13    13    14   ar
    14    14    15   ar
    15    15    16   ar
    16     8     3   ar
    17    16    12   ar
    18    16    17    1
@<TRIPOS>MOLECULE
*****
 17 18 0 0 0
SMALL
GASTEIGER

@<TRIPOS>ATOM
      1 C          61.7323   85.5900   11.2130 C.2     1  UNL1        0.0436
      2 C          62.7367   85.0430   12.1835 C.2     1  UNL1        0.0042
      3 C          62.7339   83.5816   12.5219 C.ar    1  UNL1        0.0107
      4 C          63.0078   82.5641   11.4544 C.ar    1  UNL1        0.0008
      5 C          63.0051   81.1028   11.7928 C.ar    1  UNL1        0.0001
      6 C          62.7283   80.6590   13.1986 C.ar    1  UNL1        0.0009
      7 C          62.4544   81.6765   14.2661 C.ar    1  UNL1        0.0114
      8 C          62.4572   83.1378   13.9278 C.ar    1  UNL1        0.0576
      9 CL         62.1832   84.1554   14.9953 Cl      1  UNL1       -0.0822
     10 O          62.5516   88.0087   11.6912 O.2     1  UNL1       -0.2850
     11 C          61.7351   87.0514   10.8746 C.2     1  UNL1        0.2111
     12 C          60.9213   87.5554    9.7198 C.ar    1  UNL1        0.0961
     13 C          60.1323   86.7121    8.7626 C.ar    1  UNL1        0.0218
     14 C          59.4770   87.6266    7.7706 C.ar    1  UNL1        0.0200
     15 C          59.8611   89.0353    8.1146 C.ar    1  UNL1        0.0725
     16 N          60.7537   88.9912    9.3193 N.ar    1  UNL1       -0.3495
     17 H          61.1585   89.7682    9.7683 H       1  UNL1        0.1661
@<TRIPOS>BOND
     1    10    11    2
     2    11     1    1
     3     1     2    2
     4     2     3    1
     5     3     4   ar
     6     4     5   ar
     7     5     6   ar
     8     6     7   ar
     9     7     8   ar
    10     8     9    1
    11    11    12    1
    12    12    13   ar
    13    13    14   ar
    14    14    15   ar
    15    15    16   ar
    16     8     3   ar
    17    16    12   ar
    18    16    17    1
@<TRIPOS>MOLECULE
*****
 17 18 0 0 0
SMALL
GASTEIGER

@<TRIPOS>ATOM
      1 C          63.3420   84.8142   15.6363 C.2     1  UNL1        0.0436
      2 C          62.2266   84.3326   14.7567 C.2     1  UNL1        0.0042
      3 C          62.4147   83.1095   13.9089 C.ar    1  UNL1        0.0107
      4 C          62.1274   81.7515   14.4774 C.ar    1  UNL1        0.0008
      5 C          62.3155   80.5285   13.6296 C.ar    1  UNL1        0.0001
      6 C          62.7909   80.6635   12.2133 C.ar    1  UNL1        0.0009
      7 C          63.0781   82.0215   11.6448 C.ar    1  UNL1        0.0114
      8 C          62.8900   83.2445   12.4926 C.ar    1  UNL1        0.0576
      9 CL         63.1773   84.6026   11.9241 Cl      1  UNL1       -0.0822
     10 O          62.6199   85.9076   17.8798 O.2     1  UNL1       -0.2850
     11 C          63.1539   86.0374   16.4841 C.2     1  UNL1        0.2111
     12 C          63.5000   87.3901   15.9362 C.ar    1  UNL1        0.0961
     13 C          64.3637   87.6625   14.7405 C.ar    1  UNL1        0.0218
     14 C          64.4405   89.1488   14.5531 C.ar    1  UNL1        0.0200
     15 C          63.6243   89.7950   15.6330 C.ar    1  UNL1        0.0725
     16 N          63.0430   88.7081   16.4878 N.ar    1  UNL1       -0.3495
     17 H          62.4633   88.8371   17.2730 H       1  UNL1        0.1661
@<TRIPOS>BOND
     1    10    11    2
     2    11     1    1
     3     1     2    2
     4     2     3    1
     5     3     4   ar
     6     4     5   ar
     7     5     6   ar
     8     6     7   ar
     9     7     8   ar
    10     8     9    1
    11    11    12    1
    12    12    13   ar
    13    13    14   ar
    14    14    15   ar
    15    15    16   ar
    16     8     3   ar
    17    16    12   ar
    18    16    17    1
@<TRIPOS>MOLECULE
*****
 17 18 0 0 0
SMALL
GASTEIGER

@<TRIPOS>ATOM
      1 C          61.9117   85.1871   11.0832 C.2     1  UNL1        0.0436
      2 C          62.2940   85.9710    9.8628 C.2     1  UNL1        0.0042
      3 C          61.2598   86.7781    9.1354 C.ar    1  UNL1        0.0107
      4 C          60.2772   86.0968    8.2298 C.ar    1  UNL1        0.0008
      5 C          59.2431   86.9039    7.5024 C.ar    1  UNL1        0.0001
      6 C          59.1916   88.3924    7.6807 C.ar    1  UNL1        0.0009
      7 C          60.1743   89.0737    8.5863 C.ar    1  UNL1        0.0114
      8 C          61.2084   88.2666    9.3136 C.ar    1  UNL1        0.0576
      9 CL         62.1911   88.9479   10.2193 Cl      1  UNL1       -0.0822
     10 O          63.2864   82.9973   11.3389 O.2     1  UNL1       -0.2850
     11 C          62.9459   84.3799   11.8106 C.2     1  UNL1        0.2111
     12 C          63.6395   84.9554   13.0096 C.ar    1  UNL1        0.0961
     13 C          64.6041   84.2319   13.9017 C.ar    1  UNL1        0.0218
     14 C          65.0511   85.1847   14.9705 C.ar    1  UNL1        0.0200
     15 C          64.3627   86.4972   14.7389 C.ar    1  UNL1        0.0725
     16 N          63.4903   86.3554   13.5270 N.ar    1  UNL1       -0.3495
     17 H          62.9199   87.0579   13.1392 H       1  UNL1        0.1661
@<TRIPOS>BOND
     1    10    11    2
     2    11     1    1
     3     1     2    2
     4     2     3    1
     5     3     4   ar
     6     4     5   ar
     7     5     6   ar
     8     6     7   ar
     9     7     8   ar
    10     8     9    1
    11    11    12    1
    12    12    13   ar
    13    13    14   ar
    14    14    15   ar
    15    15    16   ar
    16     8     3   ar
    17    16    12   ar
    18    16    17    1
@<TRIPOS>MOLECULE
*****
 17 18 0 0 0
SMALL
GASTEIGER

@<TRIPOS>ATOM
      1 C          61.7711   85.5411   11.2710 C.2     1  UNL1        0.0436
      2 C          62.7627   84.9709   12.2413 C.2     1  UNL1        0.0042
      3 C          62.7418   83.5055   12.5610 C.ar    1  UNL1        0.0107
      4 C          62.2251   83.0347   13.8882 C.ar    1  UNL1        0.0008
      5 C          62.2042   81.5693   14.2078 C.ar    1  UNL1        0.0001
      6 C          62.6999   80.5747   13.2003 C.ar    1  UNL1        0.0009
      7 C          63.2166   81.0455   11.8731 C.ar    1  UNL1        0.0114
      8 C          63.2375   82.5109   11.5535 C.ar    1  UNL1        0.0576
      9 CL         63.7542   82.9818   10.2263 Cl      1  UNL1       -0.0822
     10 O          62.6323   87.9409   11.7704 O.2     1  UNL1       -0.2850
     11 C          61.7920   87.0065   10.9513 C.2     1  UNL1        0.2111
     12 C          60.9728   87.5375    9.8125 C.ar    1  UNL1        0.0961
     13 C          60.8579   88.9764    9.4048 C.ar    1  UNL1        0.0218
     14 C          59.9387   89.0510    8.2218 C.ar    1  UNL1        0.0200
     15 C          59.4853   87.6582    7.8984 C.ar    1  UNL1        0.0725
     16 N          60.1245   86.7228    8.8816 N.ar    1  UNL1       -0.3495
     17 H          60.0077   85.7457    8.9107 H       1  UNL1        0.1661
@<TRIPOS>BOND
     1    10    11    2
     2    11     1    1
     3     1     2    2
     4     2     3    1
     5     3     4   ar
     6     4     5   ar
     7     5     6   ar
     8     6     7   ar
     9     7     8   ar
    10     8     9    1
    11    11    12    1
    12    12    13   ar
    13    13    14   ar
    14    14    15   ar
    15    15    16   ar
    16     8     3   ar
    17    16    12   ar
    18    16    17    1
@<TRIPOS>MOLECULE
*****
 17 18 0 0 0
SMALL
GASTEIGER

@<TRIPOS>ATOM
      1 C          61.2520   85.7712   10.4436 C.2     1  UNL1        0.0436
      2 C          62.4674   85.8230   11.3212 C.2     1  UNL1        0.0042
      3 C          62.9210   84.5913   12.0475 C.ar    1  UNL1        0.0107
      4 C          62.6700   84.4537   13.5199 C.ar    1  UNL1        0.0008
      5 C          63.1236   83.2221   14.2461 C.ar    1  UNL1        0.0001
      6 C          63.8284   82.1282   13.4999 C.ar    1  UNL1        0.0009
      7 C          64.0794   82.2659   12.0275 C.ar    1  UNL1        0.0114
      8 C          63.6258   83.4975   11.3013 C.ar    1  UNL1        0.0576
      9 CL         63.8768   83.6352    9.8288 Cl      1  UNL1       -0.0822
     10 O          60.8289   87.0435    8.2182 O.2     1  UNL1       -0.2850
     11 C          60.7983   87.0028    9.7174 C.2     1  UNL1        0.2111
     12 C          60.3141   88.1937   10.4902 C.ar    1  UNL1        0.0961
     13 C          60.3429   89.6189   10.0234 C.ar    1  UNL1        0.0218
     14 C          59.7627   90.4745   11.1102 C.ar    1  UNL1        0.0200
     15 C          59.3752   89.5780   12.2488 C.ar    1  UNL1        0.0725
     16 N          59.7160   88.1684   11.8656 N.ar    1  UNL1       -0.3495
     17 H          59.5723   87.3673   12.4195 H       1  UNL1        0.1661
@<TRIPOS>BOND
     1    10    11    2
     2    11     1    1
     3     1     2    2
     4     2     3    1
     5     3     4   ar
     6     4     5   ar
     7     5     6   ar
     8     6     7   ar
     9     7     8   ar
    10     8     9    1
    11    11    12    1
    12    12    13   ar
    13    13    14   ar
    14    14    15   ar
    15    15    16   ar
    16     8     3   ar
    17    16    12   ar
    18    16    17    1
