@<TRIPOS>MOLECULE
*****
 33 37 0 0 0
SMALL
GASTEIGER

@<TRIPOS>ATOM
      1 C          61.2004   90.2648    9.0482 C.3     1  UNL1        0.0334
      2 C          62.1082   90.3851   10.2362 C.ar    1  UNL1        0.0057
      3 C          63.2638   91.3408   10.2034 C.ar    1  UNL1       -0.0008
      4 C          64.1716   91.4612   11.3914 C.ar    1  UNL1        0.0139
      5 C          65.3812   92.3103   11.6483 C.ar    1  UNL1        0.0086
      6 C          65.8810   91.9995   13.0281 C.ar    1  UNL1        0.0710
      7 N          64.9802   90.9584   13.6238 N.ar    1  UNL1       -0.3221
      8 C          63.9238   90.6257   12.6123 C.ar    1  UNL1        0.0621
      9 C          62.7682   89.6700   12.6452 C.ar    1  UNL1        0.0465
     10 C          61.8603   89.5496   11.4571 C.ar    1  UNL1        0.1376
     11 F          60.7048   88.5939   11.4900 F       1  UNL1       -0.2045
     12 C          65.9850   93.2968   10.6933 C.3     1  UNL1        0.1241
     13 C          65.3557   94.6462   10.5114 C.2     1  UNL1       -0.0115
     14 C          65.9595   95.6327    9.5563 C.2     1  UNL1        0.0141
     15 C          67.1927   95.2698    8.7832 C.2     1  UNL1        0.0883
     16 N          67.8220   93.9205    8.9651 N.am    1  UNL1       -0.1774
     17 C          67.2182   92.9339    9.9201 C.2     1  UNL1        0.2534
     18 O          67.8475   91.5845   10.1021 O.2     1  UNL1       -0.2723
     19 C          67.0723   92.6208   13.6950 C.2     1  UNL1        0.0884
     20 O          66.8906   93.7888   14.6184 O.co2   1  UNL1       -0.5431
     21 O          68.4453   92.0741   13.4386 O.co2   1  UNL1       -0.5431
     22 C          65.1127   90.3559   14.9910 C.3     1  UNL1        0.1351
     23 C          64.4694   89.0352   15.2941 C.ar    1  UNL1        0.0289
     24 C          64.9120   87.8007   14.5661 C.ar    1  UNL1        0.0015
     25 C          64.2687   86.4799   14.8692 C.ar    1  UNL1        0.0175
     26 C          64.7114   85.2454   14.1413 C.ar    1  UNL1        0.0015
     27 C          64.0681   83.9247   14.4443 C.ar    1  UNL1        0.0001
     28 C          62.9821   83.8385   15.4754 C.ar    1  UNL1        0.0015
     29 C          62.5394   85.0730   16.2034 C.ar    1  UNL1        0.0191
     30 C          63.1827   86.3937   15.9003 C.ar    1  UNL1        0.0822
     31 N          62.7400   87.6283   16.6283 N.ar    1  UNL1       -0.2342
     32 C          63.3833   88.9490   16.3252 C.ar    1  UNL1        0.1361
     33 CL         62.9406   90.1835   17.0532 Cl      1  UNL1       -0.0616
@<TRIPOS>UNITY_ATOM_ATTR
20 1
charge -1
@<TRIPOS>BOND
     1     1     2    1
     2     2     3   ar
     3     3     4   ar
     4     4     5   ar
     5     5    12    1
     6    12    13    1
     7    13    14    2
     8    14    15    1
     9    15    16    2
    10    16    17    1
    11    17    18    2
    12     5     6   ar
    13     6    19    1
    14    19    20   ar
    15    19    21   ar
    16     6     7   ar
    17     7    22    1
    18    22    23    1
    19    23    24   ar
    20    24    25   ar
    21    25    26   ar
    22    26    27   ar
    23    27    28   ar
    24    28    29   ar
    25    29    30   ar
    26    30    31   ar
    27    31    32   ar
    28    32    33    1
    29     7     8   ar
    30     8     9   ar
    31     9    10   ar
    32    10    11    1
    33    10     2   ar
    34     8     4   ar
    35    17    12    1
    36    32    23   ar
    37    30    25   ar
@<TRIPOS>MOLECULE
*****
 33 37 0 0 0
SMALL
GASTEIGER

@<TRIPOS>ATOM
      1 C          60.1438   86.0525    7.6316 C.3     1  UNL1        0.0334
      2 C          60.7289   86.7511    8.8230 C.ar    1  UNL1        0.0057
      3 C          61.4785   85.9670    9.8590 C.ar    1  UNL1       -0.0008
      4 C          62.0636   86.6656   11.0504 C.ar    1  UNL1        0.0139
      5 C          62.8474   86.1604   12.2254 C.ar    1  UNL1        0.0086
      6 C          63.1672   87.3310   13.1071 C.ar    1  UNL1        0.0710
      7 N          62.5812   88.5597   12.4770 N.ar    1  UNL1       -0.3221
      8 C          61.8991   88.1484   11.2059 C.ar    1  UNL1        0.0621
      9 C          61.1495   88.9326   10.1700 C.ar    1  UNL1        0.0465
     10 C          60.5644   88.2340    8.9785 C.ar    1  UNL1        0.1376
     11 F          59.8148   89.0181    7.9426 F       1  UNL1       -0.2045
     12 C          63.2419   84.7349   12.4749 C.3     1  UNL1        0.1241
     13 C          64.0788   84.0013   11.4691 C.2     1  UNL1       -0.0115
     14 C          64.4733   82.5758   11.7186 C.2     1  UNL1        0.0141
     15 C          64.0311   81.8839   12.9738 C.2     1  UNL1        0.0883
     16 N          63.1942   82.6175   13.9796 N.am    1  UNL1       -0.1774
     17 C          62.7997   84.0430   13.7302 C.2     1  UNL1        0.2534
     18 O          61.9628   84.7766   14.7360 O.2     1  UNL1       -0.2723
     19 C          63.9378   87.2816   14.3930 C.2     1  UNL1        0.0884
     20 O          65.1617   86.4212   14.5014 O.co2   1  UNL1       -0.5431
     21 O          63.4846   88.0926   15.5707 O.co2   1  UNL1       -0.5431
     22 C          62.6629   89.9546   13.0223 C.3     1  UNL1        0.1351
     23 C          63.9832   90.6648   13.0707 C.ar    1  UNL1        0.0289
     24 C          64.7974   90.6493   14.3304 C.ar    1  UNL1        0.0015
     25 C          66.1177   91.3595   14.3789 C.ar    1  UNL1        0.0175
     26 C          66.9319   91.3440   15.6385 C.ar    1  UNL1        0.0015
     27 C          68.2522   92.0542   15.6870 C.ar    1  UNL1        0.0001
     28 C          68.7583   92.7800   14.4758 C.ar    1  UNL1        0.0015
     29 C          67.9441   92.7955   13.2161 C.ar    1  UNL1        0.0191
     30 C          66.6238   92.0853   13.1677 C.ar    1  UNL1        0.0822
     31 N          65.8096   92.1009   11.9079 N.ar    1  UNL1       -0.2342
     32 C          64.4893   91.3906   11.8594 C.ar    1  UNL1        0.1361
     33 CL         63.6751   91.4062   10.5998 Cl      1  UNL1       -0.0616
@<TRIPOS>UNITY_ATOM_ATTR
20 1
charge -1
@<TRIPOS>BOND
     1     1     2    1
     2     2     3   ar
     3     3     4   ar
     4     4     5   ar
     5     5    12    1
     6    12    13    1
     7    13    14    2
     8    14    15    1
     9    15    16    2
    10    16    17    1
    11    17    18    2
    12     5     6   ar
    13     6    19    1
    14    19    20   ar
    15    19    21   ar
    16     6     7   ar
    17     7    22    1
    18    22    23    1
    19    23    24   ar
    20    24    25   ar
    21    25    26   ar
    22    26    27   ar
    23    27    28   ar
    24    28    29   ar
    25    29    30   ar
    26    30    31   ar
    27    31    32   ar
    28    32    33    1
    29     7     8   ar
    30     8     9   ar
    31     9    10   ar
    32    10    11    1
    33    10     2   ar
    34     8     4   ar
    35    17    12    1
    36    32    23   ar
    37    30    25   ar
@<TRIPOS>MOLECULE
*****
 33 37 0 0 0
SMALL
GASTEIGER

@<TRIPOS>ATOM
      1 C          64.2541   83.8153   14.1314 C.3     1  UNL1        0.0334
      2 C          63.9643   85.2493   13.8005 C.ar    1  UNL1        0.0057
      3 C          63.2727   85.5977   12.5160 C.ar    1  UNL1       -0.0008
      4 C          62.9829   87.0318   12.1851 C.ar    1  UNL1        0.0139
      5 C          62.3197   87.6750   11.0033 C.ar    1  UNL1        0.0086
      6 C          62.3118   89.1582   11.2267 C.ar    1  UNL1        0.0710
      7 N          62.9701   89.4317   12.5465 N.ar    1  UNL1       -0.3221
      8 C          63.3848   88.1175   13.1389 C.ar    1  UNL1        0.0621
      9 C          64.0765   87.7692   14.4235 C.ar    1  UNL1        0.0465
     10 C          64.3663   86.3351   14.7543 C.ar    1  UNL1        0.1376
     11 F          65.0580   85.9867   16.0389 F       1  UNL1       -0.2045
     12 C          61.7623   86.9604    9.8081 C.3     1  UNL1        0.1241
     13 C          62.6746   86.1826    8.9065 C.2     1  UNL1       -0.0115
     14 C          62.1172   85.4680    7.7112 C.2     1  UNL1        0.0141
     15 C          60.6476   85.5312    7.4175 C.2     1  UNL1        0.0883
     16 N          59.7353   86.3090    8.3191 N.am    1  UNL1       -0.1774
     17 C          60.2927   87.0236    9.5144 C.2     1  UNL1        0.2534
     18 O          59.3804   87.8014   10.4160 O.2     1  UNL1       -0.2723
     19 C          61.7452   90.1873   10.2940 C.2     1  UNL1        0.0884
     20 O          60.2996   90.5750   10.3940 O.co2   1  UNL1       -0.5431
     21 O          62.6240   90.8286    9.2614 O.co2   1  UNL1       -0.5431
     22 C          63.1773   90.7823   13.1654 C.3     1  UNL1        0.1351
     23 C          64.5672   91.3047   13.3779 C.ar    1  UNL1        0.0289
     24 C          65.1814   91.2676   14.7458 C.ar    1  UNL1        0.0015
     25 C          66.5714   91.7900   14.9583 C.ar    1  UNL1        0.0175
     26 C          67.1856   91.7530   16.3262 C.ar    1  UNL1        0.0015
     27 C          68.5755   92.2754   16.5387 C.ar    1  UNL1        0.0001
     28 C          69.3512   92.8349   15.3832 C.ar    1  UNL1        0.0015
     29 C          68.7370   92.8720   14.0152 C.ar    1  UNL1        0.0191
     30 C          67.3471   92.3495   13.8028 C.ar    1  UNL1        0.0822
     31 N          66.7329   92.3866   12.4347 N.ar    1  UNL1       -0.2342
     32 C          65.3429   91.8642   12.2223 C.ar    1  UNL1        0.1361
     33 CL         64.7287   91.9013   10.8543 Cl      1  UNL1       -0.0616
@<TRIPOS>UNITY_ATOM_ATTR
20 1
charge -1
@<TRIPOS>BOND
     1     1     2    1
     2     2     3   ar
     3     3     4   ar
     4     4     5   ar
     5     5    12    1
     6    12    13    1
     7    13    14    2
     8    14    15    1
     9    15    16    2
    10    16    17    1
    11    17    18    2
    12     5     6   ar
    13     6    19    1
    14    19    20   ar
    15    19    21   ar
    16     6     7   ar
    17     7    22    1
    18    22    23    1
    19    23    24   ar
    20    24    25   ar
    21    25    26   ar
    22    26    27   ar
    23    27    28   ar
    24    28    29   ar
    25    29    30   ar
    26    30    31   ar
    27    31    32   ar
    28    32    33    1
    29     7     8   ar
    30     8     9   ar
    31     9    10   ar
    32    10    11    1
    33    10     2   ar
    34     8     4   ar
    35    17    12    1
    36    32    23   ar
    37    30    25   ar
@<TRIPOS>MOLECULE
*****
 33 37 0 0 0
SMALL
GASTEIGER

@<TRIPOS>ATOM
      1 C          60.5221   86.2029    7.7733 C.3     1  UNL1        0.0334
      2 C          61.0834   86.8159    9.0220 C.ar    1  UNL1        0.0057
      3 C          61.7573   85.9504   10.0450 C.ar    1  UNL1       -0.0008
      4 C          62.3186   86.5633   11.2937 C.ar    1  UNL1        0.0139
      5 C          63.0317   85.9676   12.4713 C.ar    1  UNL1        0.0086
      6 C          63.3598   87.0782   13.4248 C.ar    1  UNL1        0.0710
      7 N          62.8495   88.3602   12.8364 N.ar    1  UNL1       -0.3221
      8 C          62.2061   88.0420   11.5193 C.ar    1  UNL1        0.0621
      9 C          61.5322   88.9076   10.4963 C.ar    1  UNL1        0.0465
     10 C          60.9708   88.2946    9.2476 C.ar    1  UNL1        0.1376
     11 F          60.2970   89.1602    8.2247 F       1  UNL1       -0.2045
     12 C          63.3591   84.5163   12.6620 C.3     1  UNL1        0.1241
     13 C          64.2578   83.8158   11.6865 C.2     1  UNL1       -0.0115
     14 C          64.5852   82.3644   11.8772 C.2     1  UNL1        0.0141
     15 C          64.0140   81.6136   13.0434 C.2     1  UNL1        0.0883
     16 N          63.1153   82.3141   14.0189 N.am    1  UNL1       -0.1774
     17 C          62.7878   83.7655   13.8282 C.2     1  UNL1        0.2534
     18 O          61.8891   84.4661   14.8037 O.2     1  UNL1       -0.2723
     19 C          64.0729   86.9323   14.7363 C.2     1  UNL1        0.0884
     20 O          65.3845   86.2072   14.8003 O.co2   1  UNL1       -0.5431
     21 O          63.4746   87.5115   15.9839 O.co2   1  UNL1       -0.5431
     22 C          62.9628   89.7214   13.4563 C.3     1  UNL1        0.1351
     23 C          64.0683   90.6456   13.0396 C.ar    1  UNL1        0.0289
     24 C          63.9686   91.3991   11.7464 C.ar    1  UNL1        0.0015
     25 C          65.0742   92.3233   11.3297 C.ar    1  UNL1        0.0175
     26 C          64.9744   93.0768   10.0366 C.ar    1  UNL1        0.0015
     27 C          66.0800   94.0010    9.6199 C.ar    1  UNL1        0.0001
     28 C          67.2852   94.1717   10.4963 C.ar    1  UNL1        0.0015
     29 C          67.3849   93.4182   11.7895 C.ar    1  UNL1        0.0191
     30 C          66.2794   92.4940   12.2062 C.ar    1  UNL1        0.0822
     31 N          66.3792   91.7405   13.4994 N.ar    1  UNL1       -0.2342
     32 C          65.2736   90.8163   13.9161 C.ar    1  UNL1        0.1361
     33 CL         65.3733   90.0628   15.2092 Cl      1  UNL1       -0.0616
@<TRIPOS>UNITY_ATOM_ATTR
20 1
charge -1
@<TRIPOS>BOND
     1     1     2    1
     2     2     3   ar
     3     3     4   ar
     4     4     5   ar
     5     5    12    1
     6    12    13    1
     7    13    14    2
     8    14    15    1
     9    15    16    2
    10    16    17    1
    11    17    18    2
    12     5     6   ar
    13     6    19    1
    14    19    20   ar
    15    19    21   ar
    16     6     7   ar
    17     7    22    1
    18    22    23    1
    19    23    24   ar
    20    24    25   ar
    21    25    26   ar
    22    26    27   ar
    23    27    28   ar
    24    28    29   ar
    25    29    30   ar
    26    30    31   ar
    27    31    32   ar
    28    32    33    1
    29     7     8   ar
    30     8     9   ar
    31     9    10   ar
    32    10    11    1
    33    10     2   ar
    34     8     4   ar
    35    17    12    1
    36    32    23   ar
    37    30    25   ar
@<TRIPOS>MOLECULE
*****
 33 37 0 0 0
SMALL
GASTEIGER

@<TRIPOS>ATOM
      1 C          64.3960   82.4364   12.9388 C.3     1  UNL1        0.0334
      2 C          63.9152   83.8555   12.8683 C.ar    1  UNL1        0.0057
      3 C          63.2847   84.3722   11.6092 C.ar    1  UNL1       -0.0008
      4 C          62.8039   85.7913   11.5387 C.ar    1  UNL1        0.0139
      5 C          62.1474   86.5753   10.4412 C.ar    1  UNL1        0.0086
      6 C          61.8914   87.9623   10.9517 C.ar    1  UNL1        0.0710
      7 N          62.3896   88.0355   12.3647 N.ar    1  UNL1       -0.3221
      8 C          62.9536   86.6938   12.7274 C.ar    1  UNL1        0.0621
      9 C          63.5841   86.1772   13.9866 C.ar    1  UNL1        0.0465
     10 C          64.0649   84.7580   14.0571 C.ar    1  UNL1        0.1376
     11 F          64.6954   84.2414   15.3162 F       1  UNL1       -0.2045
     12 C          61.8067   86.0623    9.0734 C.3     1  UNL1        0.1241
     13 C          62.8622   85.4043    8.2349 C.2     1  UNL1       -0.0115
     14 C          62.5215   84.8914    6.8671 C.2     1  UNL1        0.0141
     15 C          61.1255   85.0364    6.3379 C.2     1  UNL1        0.0883
     16 N          60.0701   85.6944    7.1764 N.am    1  UNL1       -0.1774
     17 C          60.4107   86.2074    8.5442 C.2     1  UNL1        0.2534
     18 O          59.3553   86.8654    9.3828 O.2     1  UNL1       -0.2723
     19 C          61.2497   89.0799   10.1840 C.2     1  UNL1        0.0884
     20 O          61.9672   89.7002    9.0220 O.co2   1  UNL1       -0.5431
     21 O          59.8907   89.5772   10.5784 O.co2   1  UNL1       -0.5431
     22 C          62.3337   89.2392   13.2580 C.3     1  UNL1        0.1351
     23 C          63.3807   90.3072   13.1438 C.ar    1  UNL1        0.0289
     24 C          63.6738   90.9307   11.8114 C.ar    1  UNL1        0.0015
     25 C          64.7208   91.9987   11.6972 C.ar    1  UNL1        0.0175
     26 C          65.0140   92.6222   10.3647 C.ar    1  UNL1        0.0015
     27 C          66.0610   93.6902   10.2505 C.ar    1  UNL1        0.0001
     28 C          66.8148   94.1349   11.4687 C.ar    1  UNL1        0.0015
     29 C          66.5216   93.5115   12.8011 C.ar    1  UNL1        0.0191
     30 C          65.4746   92.4434   12.9153 C.ar    1  UNL1        0.0822
     31 N          65.1815   91.8200   14.2478 N.ar    1  UNL1       -0.2342
     32 C          64.1345   90.7519   14.3621 C.ar    1  UNL1        0.1361
     33 CL         63.8413   90.1285   15.6945 Cl      1  UNL1       -0.0616
@<TRIPOS>UNITY_ATOM_ATTR
20 1
charge -1
@<TRIPOS>BOND
     1     1     2    1
     2     2     3   ar
     3     3     4   ar
     4     4     5   ar
     5     5    12    1
     6    12    13    1
     7    13    14    2
     8    14    15    1
     9    15    16    2
    10    16    17    1
    11    17    18    2
    12     5     6   ar
    13     6    19    1
    14    19    20   ar
    15    19    21   ar
    16     6     7   ar
    17     7    22    1
    18    22    23    1
    19    23    24   ar
    20    24    25   ar
    21    25    26   ar
    22    26    27   ar
    23    27    28   ar
    24    28    29   ar
    25    29    30   ar
    26    30    31   ar
    27    31    32   ar
    28    32    33    1
    29     7     8   ar
    30     8     9   ar
    31     9    10   ar
    32    10    11    1
    33    10     2   ar
    34     8     4   ar
    35    17    12    1
    36    32    23   ar
    37    30    25   ar
@<TRIPOS>MOLECULE
*****
 33 37 0 0 0
SMALL
GASTEIGER

@<TRIPOS>ATOM
      1 C          64.3042   83.8075   14.2432 C.3     1  UNL1        0.0334
      2 C          64.0000   85.2380   13.9101 C.ar    1  UNL1        0.0057
      3 C          63.3582   85.5828   12.5990 C.ar    1  UNL1       -0.0008
      4 C          63.0541   87.0134   12.2659 C.ar    1  UNL1        0.0139
      5 C          62.4303   87.6527   11.0608 C.ar    1  UNL1        0.0086
      6 C          62.3825   89.1336   11.2942 C.ar    1  UNL1        0.0710
      7 N          62.9768   89.4096   12.6435 N.ar    1  UNL1       -0.3221
      8 C          63.3918   88.0993   13.2441 C.ar    1  UNL1        0.0621
      9 C          64.0337   87.7546   14.5553 C.ar    1  UNL1        0.0465
     10 C          64.3378   86.3239   14.8883 C.ar    1  UNL1        0.1376
     11 F          64.9796   85.9792   16.1994 F       1  UNL1       -0.2045
     12 C          61.9403   86.9367    9.8372 C.3     1  UNL1        0.1241
     13 C          62.9114   86.2118    8.9531 C.2     1  UNL1       -0.0115
     14 C          62.4214   85.4958    7.7295 C.2     1  UNL1        0.0141
     15 C          60.9604   85.5047    7.3900 C.2     1  UNL1        0.0883
     16 N          59.9893   86.2295    8.2740 N.am    1  UNL1       -0.1774
     17 C          60.4793   86.9455    9.4976 C.2     1  UNL1        0.2534
     18 O          59.5082   87.6705   10.3818 O.2     1  UNL1       -0.2723
     19 C          61.8364   90.1586   10.3449 C.2     1  UNL1        0.0884
     20 O          60.3566   90.3890   10.2600 O.co2   1  UNL1       -0.5431
     21 O          62.7699   90.9531    9.4805 O.co2   1  UNL1       -0.5431
     22 C          63.1292   90.7591   13.2805 C.3     1  UNL1        0.1351
     23 C          64.4174   91.1294   13.9538 C.ar    1  UNL1        0.0289
     24 C          65.6594   91.3315   13.1374 C.ar    1  UNL1        0.0015
     25 C          66.9476   91.7018   13.8108 C.ar    1  UNL1        0.0175
     26 C          68.1896   91.9039   12.9944 C.ar    1  UNL1        0.0015
     27 C          69.4778   92.2742   13.6678 C.ar    1  UNL1        0.0001
     28 C          69.5240   92.4424   15.1576 C.ar    1  UNL1        0.0015
     29 C          68.2820   92.2404   15.9740 C.ar    1  UNL1        0.0191
     30 C          66.9938   91.8700   15.3006 C.ar    1  UNL1        0.0822
     31 N          65.7518   91.6680   16.1171 N.ar    1  UNL1       -0.2342
     32 C          64.4636   91.2976   15.4437 C.ar    1  UNL1        0.1361
     33 CL         63.2216   91.0956   16.2601 Cl      1  UNL1       -0.0616
@<TRIPOS>UNITY_ATOM_ATTR
20 1
charge -1
@<TRIPOS>BOND
     1     1     2    1
     2     2     3   ar
     3     3     4   ar
     4     4     5   ar
     5     5    12    1
     6    12    13    1
     7    13    14    2
     8    14    15    1
     9    15    16    2
    10    16    17    1
    11    17    18    2
    12     5     6   ar
    13     6    19    1
    14    19    20   ar
    15    19    21   ar
    16     6     7   ar
    17     7    22    1
    18    22    23    1
    19    23    24   ar
    20    24    25   ar
    21    25    26   ar
    22    26    27   ar
    23    27    28   ar
    24    28    29   ar
    25    29    30   ar
    26    30    31   ar
    27    31    32   ar
    28    32    33    1
    29     7     8   ar
    30     8     9   ar
    31     9    10   ar
    32    10    11    1
    33    10     2   ar
    34     8     4   ar
    35    17    12    1
    36    32    23   ar
    37    30    25   ar
@<TRIPOS>MOLECULE
*****
 33 37 0 0 0
SMALL
GASTEIGER

@<TRIPOS>ATOM
      1 C          69.6543   93.4006   15.7336 C.3     1  UNL1        0.0334
      2 C          68.3642   92.8503   15.2016 C.ar    1  UNL1        0.0057
      3 C          68.0504   92.9556   13.7387 C.ar    1  UNL1       -0.0008
      4 C          66.7604   92.4053   13.2067 C.ar    1  UNL1        0.0139
      5 C          66.1814   92.3637   11.8236 C.ar    1  UNL1        0.0086
      6 C          64.8473   91.6822   11.8999 C.ar    1  UNL1        0.0710
      7 N          64.6018   91.3027   13.3301 N.ar    1  UNL1       -0.3221
      8 C          65.7841   91.7496   14.1378 C.ar    1  UNL1        0.0621
      9 C          66.0978   91.6442   15.6009 C.ar    1  UNL1        0.0465
     10 C          67.3880   92.1945   16.1328 C.ar    1  UNL1        0.1376
     11 F          67.7017   92.0891   17.5958 F       1  UNL1       -0.2045
     12 C          66.8237   92.9079   10.5821 C.3     1  UNL1        0.1241
     13 C          67.8572   92.0989    9.8560 C.2     1  UNL1       -0.0115
     14 C          68.4996   92.6431    8.6146 C.2     1  UNL1        0.0141
     15 C          68.1084   93.9964    8.0993 C.2     1  UNL1        0.0883
     16 N          67.0749   94.8055    8.8254 N.am    1  UNL1       -0.1774
     17 C          66.4326   94.2613   10.0668 C.2     1  UNL1        0.2534
     18 O          65.3990   95.0703   10.7930 O.2     1  UNL1       -0.2723
     19 C          63.9214   91.4254   10.7481 C.2     1  UNL1        0.0884
     20 O          63.2638   90.0855   10.5988 O.co2   1  UNL1       -0.5431
     21 O          63.6529   92.5083    9.7456 O.co2   1  UNL1       -0.5431
     22 C          63.3872   90.5997   13.8598 C.3     1  UNL1        0.1351
     23 C          63.5055   89.2091   14.4094 C.ar    1  UNL1        0.0289
     24 C          63.6992   88.0488   13.4789 C.ar    1  UNL1        0.0015
     25 C          63.8175   86.6581   14.0285 C.ar    1  UNL1        0.0175
     26 C          64.0113   85.4978   13.0980 C.ar    1  UNL1        0.0015
     27 C          64.1296   84.1072   13.6476 C.ar    1  UNL1        0.0001
     28 C          64.0542   83.8769   15.1279 C.ar    1  UNL1        0.0015
     29 C          63.8605   85.0372   16.0585 C.ar    1  UNL1        0.0191
     30 C          63.7421   86.4278   15.5088 C.ar    1  UNL1        0.0822
     31 N          63.5484   87.5882   16.4395 N.ar    1  UNL1       -0.2342
     32 C          63.4301   88.9788   15.8898 C.ar    1  UNL1        0.1361
     33 CL         63.2364   90.1392   16.8204 Cl      1  UNL1       -0.0616
@<TRIPOS>UNITY_ATOM_ATTR
20 1
charge -1
@<TRIPOS>BOND
     1     1     2    1
     2     2     3   ar
     3     3     4   ar
     4     4     5   ar
     5     5    12    1
     6    12    13    1
     7    13    14    2
     8    14    15    1
     9    15    16    2
    10    16    17    1
    11    17    18    2
    12     5     6   ar
    13     6    19    1
    14    19    20   ar
    15    19    21   ar
    16     6     7   ar
    17     7    22    1
    18    22    23    1
    19    23    24   ar
    20    24    25   ar
    21    25    26   ar
    22    26    27   ar
    23    27    28   ar
    24    28    29   ar
    25    29    30   ar
    26    30    31   ar
    27    31    32   ar
    28    32    33    1
    29     7     8   ar
    30     8     9   ar
    31     9    10   ar
    32    10    11    1
    33    10     2   ar
    34     8     4   ar
    35    17    12    1
    36    32    23   ar
    37    30    25   ar
@<TRIPOS>MOLECULE
*****
 33 37 0 0 0
SMALL
GASTEIGER

@<TRIPOS>ATOM
      1 C          64.3072   82.5530   12.3360 C.3     1  UNL1        0.0334
      2 C          63.9264   83.9895   12.5397 C.ar    1  UNL1        0.0057
      3 C          63.0573   84.6849   11.5343 C.ar    1  UNL1       -0.0008
      4 C          62.6765   86.1214   11.7380 C.ar    1  UNL1        0.0139
      5 C          61.8392   87.0630   10.9240 C.ar    1  UNL1        0.0086
      6 C          61.8101   88.3860   11.6302 C.ar    1  UNL1        0.0710
      7 N          62.6294   88.2621   12.8806 N.ar    1  UNL1       -0.3221
      8 C          63.1648   86.8625   12.9472 C.ar    1  UNL1        0.0621
      9 C          64.0340   86.1672   13.9527 C.ar    1  UNL1        0.0465
     10 C          64.4148   84.7306   13.7490 C.ar    1  UNL1        0.1376
     11 F          65.2839   84.0353   14.7544 F       1  UNL1       -0.2045
     12 C          61.1517   86.7385    9.6309 C.3     1  UNL1        0.1241
     13 C          59.7166   87.1242    9.4271 C.2     1  UNL1       -0.0115
     14 C          59.0291   86.7997    8.1341 C.2     1  UNL1        0.0141
     15 C          59.7768   86.0895    7.0448 C.2     1  UNL1        0.0883
     16 N          61.2120   85.7037    7.2486 N.am    1  UNL1       -0.1774
     17 C          61.8994   86.0282    8.5416 C.2     1  UNL1        0.2534
     18 O          63.3347   85.6425    8.7455 O.2     1  UNL1       -0.2723
     19 C          61.0885   89.6168   11.1673 C.2     1  UNL1        0.0884
     20 O          59.9578   90.1738   11.9806 O.co2   1  UNL1       -0.5431
     21 O          61.4974   90.2907    9.8911 O.co2   1  UNL1       -0.5431
     22 C          62.8709   89.3473   13.8876 C.3     1  UNL1        0.1351
     23 C          63.7781   90.4937   13.5519 C.ar    1  UNL1        0.0289
     24 C          64.0292   90.8565   12.1183 C.ar    1  UNL1        0.0015
     25 C          64.9364   92.0029   11.7825 C.ar    1  UNL1        0.0175
     26 C          65.1874   92.3657   10.3489 C.ar    1  UNL1        0.0015
     27 C          66.0947   93.5121   10.0132 C.ar    1  UNL1        0.0001
     28 C          66.7508   94.2957   11.1110 C.ar    1  UNL1        0.0015
     29 C          66.4998   93.9329   12.5447 C.ar    1  UNL1        0.0191
     30 C          65.5926   92.7865   12.8804 C.ar    1  UNL1        0.0822
     31 N          65.3415   92.4237   14.3141 N.ar    1  UNL1       -0.2342
     32 C          64.4343   91.2773   14.6498 C.ar    1  UNL1        0.1361
     33 CL         64.1833   90.9144   16.0834 Cl      1  UNL1       -0.0616
@<TRIPOS>UNITY_ATOM_ATTR
20 1
charge -1
@<TRIPOS>BOND
     1     1     2    1
     2     2     3   ar
     3     3     4   ar
     4     4     5   ar
     5     5    12    1
     6    12    13    1
     7    13    14    2
     8    14    15    1
     9    15    16    2
    10    16    17    1
    11    17    18    2
    12     5     6   ar
    13     6    19    1
    14    19    20   ar
    15    19    21   ar
    16     6     7   ar
    17     7    22    1
    18    22    23    1
    19    23    24   ar
    20    24    25   ar
    21    25    26   ar
    22    26    27   ar
    23    27    28   ar
    24    28    29   ar
    25    29    30   ar
    26    30    31   ar
    27    31    32   ar
    28    32    33    1
    29     7     8   ar
    30     8     9   ar
    31     9    10   ar
    32    10    11    1
    33    10     2   ar
    34     8     4   ar
    35    17    12    1
    36    32    23   ar
    37    30    25   ar
@<TRIPOS>MOLECULE
*****
 33 37 0 0 0
SMALL
GASTEIGER

@<TRIPOS>ATOM
      1 C          63.9775   83.6166   14.0491 C.3     1  UNL1        0.0334
      2 C          63.8451   85.0876   13.7875 C.ar    1  UNL1        0.0057
      3 C          63.1006   85.5704   12.5782 C.ar    1  UNL1       -0.0008
      4 C          62.9682   87.0415   12.3166 C.ar    1  UNL1        0.0139
      5 C          62.2975   87.8089   11.2160 C.ar    1  UNL1        0.0086
      6 C          62.4952   89.2715   11.4837 C.ar    1  UNL1        0.0710
      7 N          63.2881   89.4080   12.7497 N.ar    1  UNL1       -0.3221
      8 C          63.5804   88.0298   13.2645 C.ar    1  UNL1        0.0621
      9 C          64.3250   87.5471   14.4739 C.ar    1  UNL1        0.0465
     10 C          64.4573   86.0760   14.7354 C.ar    1  UNL1        0.1376
     11 F          65.2019   85.5932   15.9447 F       1  UNL1       -0.2045
     12 C          61.5588   87.2175   10.0522 C.3     1  UNL1        0.1241
     13 C          62.2953   86.3974    9.0349 C.2     1  UNL1       -0.0115
     14 C          61.5567   85.8060    7.8710 C.2     1  UNL1        0.0141
     15 C          60.0815   86.0347    7.7244 C.2     1  UNL1        0.0883
     16 N          59.3449   86.8549    8.7417 N.am    1  UNL1       -0.1774
     17 C          60.0836   87.4463    9.9056 C.2     1  UNL1        0.2534
     18 O          59.3471   88.2664   10.9230 O.2     1  UNL1       -0.2723
     19 C          61.9889   90.3995   10.6344 C.2     1  UNL1        0.0884
     20 O          60.6441   91.0028   10.9128 O.co2   1  UNL1       -0.5431
     21 O          62.8273   90.9243    9.5068 O.co2   1  UNL1       -0.5431
     22 C          63.7138   90.6966   13.3887 C.3     1  UNL1        0.1351
     23 C          64.7805   91.5347   12.7485 C.ar    1  UNL1        0.0289
     24 C          64.4605   92.3582   11.5363 C.ar    1  UNL1        0.0015
     25 C          65.5271   93.1964   10.8961 C.ar    1  UNL1        0.0175
     26 C          65.2072   94.0199    9.6840 C.ar    1  UNL1        0.0015
     27 C          66.2738   94.8581    9.0438 C.ar    1  UNL1        0.0001
     28 C          67.6603   94.8727    9.6157 C.ar    1  UNL1        0.0015
     29 C          67.9803   94.0491   10.8279 C.ar    1  UNL1        0.0191
     30 C          66.9137   93.2110   11.4681 C.ar    1  UNL1        0.0822
     31 N          67.2337   92.3874   12.6803 N.ar    1  UNL1       -0.2342
     32 C          66.1671   91.5493   13.3205 C.ar    1  UNL1        0.1361
     33 CL         66.4870   90.7257   14.5327 Cl      1  UNL1       -0.0616
@<TRIPOS>UNITY_ATOM_ATTR
20 1
charge -1
@<TRIPOS>BOND
     1     1     2    1
     2     2     3   ar
     3     3     4   ar
     4     4     5   ar
     5     5    12    1
     6    12    13    1
     7    13    14    2
     8    14    15    1
     9    15    16    2
    10    16    17    1
    11    17    18    2
    12     5     6   ar
    13     6    19    1
    14    19    20   ar
    15    19    21   ar
    16     6     7   ar
    17     7    22    1
    18    22    23    1
    19    23    24   ar
    20    24    25   ar
    21    25    26   ar
    22    26    27   ar
    23    27    28   ar
    24    28    29   ar
    25    29    30   ar
    26    30    31   ar
    27    31    32   ar
    28    32    33    1
    29     7     8   ar
    30     8     9   ar
    31     9    10   ar
    32    10    11    1
    33    10     2   ar
    34     8     4   ar
    35    17    12    1
    36    32    23   ar
    37    30    25   ar
