@<TRIPOS>MOLECULE
*****
 37 41 0 0 0
SMALL
GASTEIGER

@<TRIPOS>ATOM
      1 N          64.1423   88.0161   14.0471 N.am    1  UNL1       -0.2791
      2 C          63.5282   89.3834   14.1055 C.2     1  UNL1        0.2495
      3 O          62.3848   89.6527   15.0383 O.2     1  UNL1       -0.2698
      4 H          64.8928   87.8393   13.4349 H       1  UNL1        0.1552
      5 C          64.0575   90.4813   13.2312 C.ar    1  UNL1        0.0537
      6 C          63.5935   90.5975   11.8095 C.ar    1  UNL1        0.0043
      7 C          64.1228   91.6954   10.9352 C.ar    1  UNL1       -0.0022
      8 C          65.1160   92.6771   11.4826 C.ar    1  UNL1        0.0022
      9 C          65.5800   92.5610   12.9043 C.ar    1  UNL1       -0.0019
     10 C          66.5733   93.5427   13.4517 C.ar    1  UNL1       -0.0003
     11 C          67.0372   93.4265   14.8733 C.ar    1  UNL1       -0.0000
     12 C          66.5080   92.3286   15.7476 C.ar    1  UNL1        0.0000
     13 C          65.5147   91.3469   15.2003 C.ar    1  UNL1        0.0001
     14 C          65.0508   91.4631   13.7786 C.ar    1  UNL1        0.0041
     15 C          65.6453   93.7750   10.6082 C.3     1  UNL1        0.1556
     16 N          66.8124   93.5157    9.7023 N.ar    1  UNL1       -0.2257
     17 C          67.8267   92.4222    9.8622 C.ar    1  UNL1        0.1196
     18 C          68.8112   92.5350    8.7362 C.ar    1  UNL1        0.1441
     19 N          68.4054   93.6982    7.8804 N.ar    1  UNL1       -0.1271
     20 N          67.1701   94.3043    8.4776 N.ar    1  UNL1       -0.0634
     21 C          63.1080   85.6469   14.3059 C.ar    1  UNL1        0.1478
     22 N          62.5787   84.5489   15.1802 N.ar    1  UNL1       -0.2380
     23 C          62.5545   84.7223   16.6700 C.ar    1  UNL1        0.0991
     24 C          63.0595   85.9936   17.2854 C.ar    1  UNL1        0.0220
     25 C          63.5888   87.0915   16.4111 C.ar    1  UNL1        0.0180
     26 C          63.6131   86.9182   14.9214 C.ar    1  UNL1        0.0730
     27 O          63.9617   84.3855   12.2011 O.2     1  UNL1       -0.2684
     28 C          63.1323   85.4735   12.8162 C.2     1  UNL1        0.2648
     29 N          62.3270   86.3881   11.9416 N.am    1  UNL1       -0.2996
     30 H          61.7827   87.1022   12.3453 H       1  UNL1        0.1498
     31 C          62.3513   86.2148   10.4517 C.3     1  UNL1        0.0899
     32 C          61.3526   86.9365    9.5964 C.3     1  UNL1        0.0246
     33 C          61.2505   88.4316    9.6619 C.3     1  UNL1        0.0338
     34 C          60.2518   89.1534    8.8065 C.3     1  UNL1        0.1422
     35 O          59.3552   88.3801    7.8857 O.3     1  UNL1       -0.3538
     36 C          59.4573   86.8849    7.8202 C.3     1  UNL1        0.1422
     37 C          60.4560   86.1632    8.6755 C.3     1  UNL1        0.0338
@<TRIPOS>BOND
     1    27    28    2
     2    28    29   am
     3    29    31    1
     4    31    32    1
     5    32    33    1
     6    33    34    1
     7    34    35    1
     8    35    36    1
     9    36    37    1
    10    28    21    1
    11    21    22   ar
    12    22    23   ar
    13    23    24   ar
    14    24    25   ar
    15    25    26   ar
    16    26     1    1
    17     1     2   am
    18     2     3    2
    19     2     5    1
    20     5     6   ar
    21     6     7   ar
    22     7     8   ar
    23     8    15    1
    24    15    16    1
    25    16    17   ar
    26    17    18   ar
    27    18    19   ar
    28    19    20   ar
    29     8     9   ar
    30     9    10   ar
    31    10    11   ar
    32    11    12   ar
    33    12    13   ar
    34    13    14   ar
    35    37    32    1
    36    26    21   ar
    37    14     5   ar
    38    20    16   ar
    39    14     9   ar
    40    29    30    1
    41     1     4    1
@<TRIPOS>MOLECULE
*****
 37 41 0 0 0
SMALL
GASTEIGER

@<TRIPOS>ATOM
      1 N          62.5256   88.8317   10.8174 N.am    1  UNL1       -0.2791
      2 C          62.0171   89.5109   12.0544 C.2     1  UNL1        0.2495
      3 O          60.5503   89.4978   12.3681 O.2     1  UNL1       -0.2698
      4 H          63.4883   88.8404   10.6115 H       1  UNL1        0.1552
      5 C          62.9753   90.2032   12.9777 C.ar    1  UNL1        0.0537
      6 C          62.9989   89.8513   14.4356 C.ar    1  UNL1        0.0043
      7 C          63.9571   90.5436   15.3589 C.ar    1  UNL1       -0.0022
      8 C          64.8918   91.5878   14.8243 C.ar    1  UNL1        0.0022
      9 C          64.8684   91.9398   13.3663 C.ar    1  UNL1       -0.0019
     10 C          65.8031   92.9840   12.8317 C.ar    1  UNL1       -0.0003
     11 C          65.7796   93.3358   11.3738 C.ar    1  UNL1       -0.0000
     12 C          64.8213   92.6435   10.4505 C.ar    1  UNL1        0.0000
     13 C          63.8866   91.5993   10.9851 C.ar    1  UNL1        0.0001
     14 C          63.9101   91.2475   12.4430 C.ar    1  UNL1        0.0041
     15 C          65.8501   92.2801   15.7476 C.3     1  UNL1        0.1556
     16 N          67.2825   92.4634   15.3420 N.ar    1  UNL1       -0.2257
     17 C          68.2304   93.4878   15.8917 C.ar    1  UNL1        0.1196
     18 C          69.5522   93.3121   15.2049 C.ar    1  UNL1        0.1441
     19 N          69.4213   92.1790   14.2306 N.ar    1  UNL1       -0.1271
     20 N          68.0185   91.6546   14.3153 N.ar    1  UNL1       -0.0634
     21 C          61.5007   86.6411    9.8683 C.ar    1  UNL1        0.1478
     22 N          60.5424   85.9488    8.9450 N.ar    1  UNL1       -0.2380
     23 C          59.6509   86.7548    8.0475 C.ar    1  UNL1        0.0991
     24 C          59.7175   88.2531    8.0734 C.ar    1  UNL1        0.0220
     25 C          60.6758   88.9454    8.9967 C.ar    1  UNL1        0.0180
     26 C          61.5673   88.1394    9.8941 C.ar    1  UNL1        0.0730
     27 O          62.7656   86.3606   12.1202 O.2     1  UNL1       -0.2684
     28 C          62.3923   85.8351   10.7658 C.2     1  UNL1        0.2648
     29 N          62.9104   84.5038   10.3088 N.am    1  UNL1       -0.2996
     30 H          62.6654   84.1589    9.4199 H       1  UNL1        0.1498
     31 C          63.8021   83.6977   11.2063 C.3     1  UNL1        0.0899
     32 C          63.2055   82.8435   12.2853 C.3     1  UNL1        0.0246
     33 C          62.9648   81.3836   12.0391 C.3     1  UNL1        0.0338
     34 C          62.3682   80.5293   13.1181 C.3     1  UNL1        0.1422
     35 O          62.0123   81.1350   14.4434 O.3     1  UNL1       -0.3538
     36 C          62.2530   82.5950   14.6897 C.3     1  UNL1        0.1422
     37 C          62.8496   83.4492   13.6107 C.3     1  UNL1        0.0338
@<TRIPOS>BOND
     1    27    28    2
     2    28    29   am
     3    29    31    1
     4    31    32    1
     5    32    33    1
     6    33    34    1
     7    34    35    1
     8    35    36    1
     9    36    37    1
    10    28    21    1
    11    21    22   ar
    12    22    23   ar
    13    23    24   ar
    14    24    25   ar
    15    25    26   ar
    16    26     1    1
    17     1     2   am
    18     2     3    2
    19     2     5    1
    20     5     6   ar
    21     6     7   ar
    22     7     8   ar
    23     8    15    1
    24    15    16    1
    25    16    17   ar
    26    17    18   ar
    27    18    19   ar
    28    19    20   ar
    29     8     9   ar
    30     9    10   ar
    31    10    11   ar
    32    11    12   ar
    33    12    13   ar
    34    13    14   ar
    35    37    32    1
    36    26    21   ar
    37    14     5   ar
    38    20    16   ar
    39    14     9   ar
    40    29    30    1
    41     1     4    1
@<TRIPOS>MOLECULE
*****
 37 41 0 0 0
SMALL
GASTEIGER

@<TRIPOS>ATOM
      1 N          64.1965   87.3509   14.0695 N.am    1  UNL1       -0.2791
      2 C          63.8936   88.6935   14.6657 C.2     1  UNL1        0.2495
      3 O          63.0313   88.7937   15.8890 O.2     1  UNL1       -0.2698
      4 H          64.7624   87.2852   13.2666 H       1  UNL1        0.1552
      5 C          64.4528   89.9361   14.0385 C.ar    1  UNL1        0.0537
      6 C          65.4928   90.7387   14.7624 C.ar    1  UNL1        0.0043
      7 C          66.0521   91.9813   14.1352 C.ar    1  UNL1       -0.0022
      8 C          65.5713   92.4212   12.7842 C.ar    1  UNL1        0.0022
      9 C          64.5312   91.6185   12.0603 C.ar    1  UNL1       -0.0019
     10 C          64.0504   92.0584   10.7093 C.ar    1  UNL1       -0.0003
     11 C          63.0104   91.2557    9.9854 C.ar    1  UNL1       -0.0000
     12 C          62.4512   90.0132   10.6125 C.ar    1  UNL1        0.0000
     13 C          62.9319   89.5733   11.9636 C.ar    1  UNL1        0.0001
     14 C          63.9720   90.3760   12.6874 C.ar    1  UNL1        0.0041
     15 C          66.1305   93.6637   12.1571 C.3     1  UNL1        0.1556
     16 N          67.0723   93.5584   10.9944 N.ar    1  UNL1       -0.2257
     17 C          67.0937   94.4561    9.7928 C.ar    1  UNL1        0.1196
     18 C          68.1927   93.9894    8.8849 C.ar    1  UNL1        0.1441
     19 N          68.8506   92.8032    9.5254 N.ar    1  UNL1       -0.1271
     20 N          68.1582   92.5369   10.8291 N.ar    1  UNL1       -0.0634
     21 C          63.1370   84.9907   13.8301 C.ar    1  UNL1        0.1478
     22 N          62.5778   83.7482   14.4573 N.ar    1  UNL1       -0.2380
     23 C          62.5188   83.6233   15.9510 C.ar    1  UNL1        0.0991
     24 C          63.0190   84.7408   16.8174 C.ar    1  UNL1        0.0220
     25 C          63.5783   85.9834   16.1903 C.ar    1  UNL1        0.0180
     26 C          63.6373   86.1083   14.6967 C.ar    1  UNL1        0.0730
     27 O          64.0405   84.1680   11.5374 O.2     1  UNL1       -0.2684
     28 C          63.1960   85.1157   12.3366 C.2     1  UNL1        0.2648
     29 N          62.4105   86.1884   11.6421 N.am    1  UNL1       -0.2996
     30 H          61.8563   86.8104   12.1667 H       1  UNL1        0.1498
     31 C          62.4695   86.3134   10.1485 C.3     1  UNL1        0.0899
     32 C          61.2127   86.5531    9.3657 C.3     1  UNL1        0.0246
     33 C          60.2091   87.5583    9.8478 C.3     1  UNL1        0.0338
     34 C          58.9522   87.7981    9.0650 C.3     1  UNL1        0.1422
     35 O          58.6989   87.0326    7.8001 O.3     1  UNL1       -0.3538
     36 C          59.7025   86.0273    7.3181 C.3     1  UNL1        0.1422
     37 C          60.9593   85.7876    8.1008 C.3     1  UNL1        0.0338
@<TRIPOS>BOND
     1    27    28    2
     2    28    29   am
     3    29    31    1
     4    31    32    1
     5    32    33    1
     6    33    34    1
     7    34    35    1
     8    35    36    1
     9    36    37    1
    10    28    21    1
    11    21    22   ar
    12    22    23   ar
    13    23    24   ar
    14    24    25   ar
    15    25    26   ar
    16    26     1    1
    17     1     2   am
    18     2     3    2
    19     2     5    1
    20     5     6   ar
    21     6     7   ar
    22     7     8   ar
    23     8    15    1
    24    15    16    1
    25    16    17   ar
    26    17    18   ar
    27    18    19   ar
    28    19    20   ar
    29     8     9   ar
    30     9    10   ar
    31    10    11   ar
    32    11    12   ar
    33    12    13   ar
    34    13    14   ar
    35    37    32    1
    36    26    21   ar
    37    14     5   ar
    38    20    16   ar
    39    14     9   ar
    40    29    30    1
    41     1     4    1
@<TRIPOS>MOLECULE
*****
 37 41 0 0 0
SMALL
GASTEIGER

@<TRIPOS>ATOM
      1 N          62.5527   84.2212   13.5822 N.am    1  UNL1       -0.2791
      2 C          63.8291   84.9242   13.9379 C.2     1  UNL1        0.2495
      3 O          65.1273   84.1727   13.9273 O.2     1  UNL1       -0.2698
      4 H          61.7006   84.7144   13.5892 H       1  UNL1        0.1552
      5 C          63.8074   86.3786   14.3041 C.ar    1  UNL1        0.0537
      6 C          64.1333   87.4169   13.2719 C.ar    1  UNL1        0.0043
      7 C          64.1115   88.8713   13.6381 C.ar    1  UNL1       -0.0022
      8 C          63.7639   89.2875   15.0367 C.ar    1  UNL1        0.0022
      9 C          63.4380   88.2491   16.0690 C.ar    1  UNL1       -0.0019
     10 C          63.0904   88.6653   17.4676 C.ar    1  UNL1       -0.0003
     11 C          62.7645   87.6270   18.4998 C.ar    1  UNL1       -0.0000
     12 C          62.7862   86.1725   18.1336 C.ar    1  UNL1        0.0000
     13 C          63.1338   85.7564   16.7351 C.ar    1  UNL1        0.0001
     14 C          63.4597   86.7947   15.7028 C.ar    1  UNL1        0.0041
     15 C          63.7422   90.7419   15.4029 C.3     1  UNL1        0.1556
     16 N          64.7513   91.6799   14.8096 N.ar    1  UNL1       -0.2257
     17 C          65.9203   92.2865   15.5276 C.ar    1  UNL1        0.1196
     18 C          66.6600   93.1574   14.5559 C.ar    1  UNL1        0.1441
     19 N          65.9481   93.0891   13.2373 N.ar    1  UNL1       -0.1271
     20 N          64.7685   92.1759   13.3941 N.ar    1  UNL1       -0.0634
     21 C          62.9543   82.3488   11.8263 C.ar    1  UNL1        0.1478
     22 N          62.9760   80.8944   11.4601 N.ar    1  UNL1       -0.2380
     23 C          62.6178   79.8579   12.4835 C.ar    1  UNL1        0.0991
     24 C          62.2378   80.2758   13.8731 C.ar    1  UNL1        0.0220
     25 C          62.2161   81.7302   14.2393 C.ar    1  UNL1        0.0180
     26 C          62.5744   82.7667   13.2160 C.ar    1  UNL1        0.0730
     27 O          64.6129   83.2893   10.0616 O.2     1  UNL1       -0.2684
     28 C          63.3126   83.3854   10.8030 C.2     1  UNL1        0.2648
     29 N          62.3704   84.5180   10.5212 N.am    1  UNL1       -0.2996
     30 H          61.5169   84.5810   11.0078 H       1  UNL1        0.1498
     31 C          62.7286   85.5546    9.4978 C.3     1  UNL1        0.0899
     32 C          61.7682   86.6638    9.1858 C.3     1  UNL1        0.0246
     33 C          60.5988   86.4110    8.2812 C.3     1  UNL1        0.0338
     34 C          59.6384   87.5202    7.9691 C.3     1  UNL1        0.1422
     35 O          59.8474   88.8822    8.5619 O.3     1  UNL1       -0.3538
     36 C          61.0169   89.1349    9.4666 C.3     1  UNL1        0.1422
     37 C          61.9773   88.0258    9.7785 C.3     1  UNL1        0.0338
@<TRIPOS>BOND
     1    27    28    2
     2    28    29   am
     3    29    31    1
     4    31    32    1
     5    32    33    1
     6    33    34    1
     7    34    35    1
     8    35    36    1
     9    36    37    1
    10    28    21    1
    11    21    22   ar
    12    22    23   ar
    13    23    24   ar
    14    24    25   ar
    15    25    26   ar
    16    26     1    1
    17     1     2   am
    18     2     3    2
    19     2     5    1
    20     5     6   ar
    21     6     7   ar
    22     7     8   ar
    23     8    15    1
    24    15    16    1
    25    16    17   ar
    26    17    18   ar
    27    18    19   ar
    28    19    20   ar
    29     8     9   ar
    30     9    10   ar
    31    10    11   ar
    32    11    12   ar
    33    12    13   ar
    34    13    14   ar
    35    37    32    1
    36    26    21   ar
    37    14     5   ar
    38    20    16   ar
    39    14     9   ar
    40    29    30    1
    41     1     4    1
@<TRIPOS>MOLECULE
*****
 37 41 0 0 0
SMALL
GASTEIGER

@<TRIPOS>ATOM
      1 N          61.6582   88.1521   10.6202 N.am    1  UNL1       -0.2791
      2 C          62.3769   89.4678   10.5714 C.2     1  UNL1        0.2495
      3 O          62.3117   90.3126    9.3336 O.2     1  UNL1       -0.2698
      4 H          61.7010   87.5977   11.4326 H       1  UNL1        0.1552
      5 C          63.1609   89.9387   11.7604 C.ar    1  UNL1        0.0537
      6 C          63.5135   91.3900   11.8992 C.ar    1  UNL1        0.0043
      7 C          64.2975   91.8609   13.0882 C.ar    1  UNL1       -0.0022
      8 C          64.7288   90.8805   14.1383 C.ar    1  UNL1        0.0022
      9 C          64.3762   89.4291   13.9995 C.ar    1  UNL1       -0.0019
     10 C          64.8075   88.4488   15.0496 C.ar    1  UNL1       -0.0003
     11 C          64.4549   86.9975   14.9107 C.ar    1  UNL1       -0.0000
     12 C          63.6709   86.5265   13.7217 C.ar    1  UNL1        0.0000
     13 C          63.2396   87.5069   12.6716 C.ar    1  UNL1        0.0001
     14 C          63.5922   88.9582   12.8105 C.ar    1  UNL1        0.0041
     15 C          65.5128   91.3514   15.3272 C.3     1  UNL1        0.1556
     16 N          66.8756   91.9488   15.1382 N.ar    1  UNL1       -0.2257
     17 C          67.5827   92.8547   16.1023 C.ar    1  UNL1        0.1196
     18 C          68.9148   93.2109   15.5119 C.ar    1  UNL1        0.1441
     19 N          69.0309   92.5253   14.1828 N.ar    1  UNL1       -0.1271
     20 N          67.7707   91.7452   13.9519 N.ar    1  UNL1       -0.0634
     21 C          61.1886   86.3560    8.8026 C.ar    1  UNL1        0.1478
     22 N          60.4046   85.8851    7.6136 N.ar    1  UNL1       -0.2380
     23 C          59.3062   86.7393    7.0533 C.ar    1  UNL1        0.0991
     24 C          58.9919   88.0644    7.6820 C.ar    1  UNL1        0.0220
     25 C          59.7758   88.5354    8.8710 C.ar    1  UNL1        0.0180
     26 C          60.8742   87.6812    9.4313 C.ar    1  UNL1        0.0730
     27 O          63.5289   85.2544    8.5590 O.2     1  UNL1       -0.2684
     28 C          62.2869   85.5018    9.3629 C.2     1  UNL1        0.2648
     29 N          62.1433   84.8951   10.7271 N.am    1  UNL1       -0.2996
     30 H          61.3282   85.0575   11.2548 H       1  UNL1        0.1498
     31 C          63.2417   84.0409   11.2875 C.3     1  UNL1        0.0899
     32 C          62.9192   82.9520   12.2675 C.3     1  UNL1        0.0246
     33 C          62.5249   83.3000   13.6722 C.3     1  UNL1        0.0338
     34 C          62.2024   82.2111   14.6523 C.3     1  UNL1        0.1422
     35 O          62.2742   80.7743   14.2275 O.3     1  UNL1       -0.3538
     36 C          62.6685   80.4264   12.8226 C.3     1  UNL1        0.1422
     37 C          62.9910   81.5152   11.8427 C.3     1  UNL1        0.0338
@<TRIPOS>BOND
     1    27    28    2
     2    28    29   am
     3    29    31    1
     4    31    32    1
     5    32    33    1
     6    33    34    1
     7    34    35    1
     8    35    36    1
     9    36    37    1
    10    28    21    1
    11    21    22   ar
    12    22    23   ar
    13    23    24   ar
    14    24    25   ar
    15    25    26   ar
    16    26     1    1
    17     1     2   am
    18     2     3    2
    19     2     5    1
    20     5     6   ar
    21     6     7   ar
    22     7     8   ar
    23     8    15    1
    24    15    16    1
    25    16    17   ar
    26    17    18   ar
    27    18    19   ar
    28    19    20   ar
    29     8     9   ar
    30     9    10   ar
    31    10    11   ar
    32    11    12   ar
    33    12    13   ar
    34    13    14   ar
    35    37    32    1
    36    26    21   ar
    37    14     5   ar
    38    20    16   ar
    39    14     9   ar
    40    29    30    1
    41     1     4    1
@<TRIPOS>MOLECULE
*****
 37 41 0 0 0
SMALL
GASTEIGER

@<TRIPOS>ATOM
      1 N          62.2891   88.9745    9.5269 N.am    1  UNL1       -0.2791
      2 C          62.0535   90.1671   10.4055 C.2     1  UNL1        0.2495
      3 O          60.6529   90.6125   10.7059 O.2     1  UNL1       -0.2698
      4 H          63.2083   88.6823    9.3298 H       1  UNL1        0.1552
      5 C          63.2184   90.9145   10.9839 C.ar    1  UNL1        0.0537
      6 C          63.8149   92.0694   10.2354 C.ar    1  UNL1        0.0043
      7 C          64.9798   92.8167   10.8137 C.ar    1  UNL1       -0.0022
      8 C          65.5482   92.4091   12.1406 C.ar    1  UNL1        0.0022
      9 C          64.9518   91.2541   12.8892 C.ar    1  UNL1       -0.0019
     10 C          65.5203   90.8465   14.2161 C.ar    1  UNL1       -0.0003
     11 C          64.9238   89.6916   14.9646 C.ar    1  UNL1       -0.0000
     12 C          63.7589   88.9443   14.3863 C.ar    1  UNL1        0.0000
     13 C          63.1904   89.3519   13.0594 C.ar    1  UNL1        0.0001
     14 C          63.7869   90.5068   12.3109 C.ar    1  UNL1        0.0041
     15 C          66.7132   93.1564   12.7189 C.3     1  UNL1        0.1556
     16 N          67.0704   92.9854   14.1657 N.ar    1  UNL1       -0.2257
     17 C          68.3484   92.4059   14.6958 C.ar    1  UNL1        0.1196
     18 C          68.2802   92.4261   16.1941 C.ar    1  UNL1        0.1441
     19 N          66.9600   93.0181   16.5900 N.ar    1  UNL1       -0.1271
     20 N          66.2123   93.3637   15.3364 N.ar    1  UNL1       -0.0634
     21 C          60.9904   86.7512    9.1801 C.ar    1  UNL1        0.1478
     22 N          59.8255   86.0039    8.6018 N.ar    1  UNL1       -0.2380
     23 C          58.7944   86.7326    7.7918 C.ar    1  UNL1        0.0991
     24 C          58.9282   88.2085    7.5603 C.ar    1  UNL1        0.0220
     25 C          60.0931   88.9558    8.1386 C.ar    1  UNL1        0.0180
     26 C          61.1242   88.2272    8.9485 C.ar    1  UNL1        0.0730
     27 O          63.1101   85.2539    9.3015 O.2     1  UNL1       -0.2684
     28 C          62.0215   86.0226    9.9900 C.2     1  UNL1        0.2648
     29 N          61.9639   86.0627   11.4883 N.am    1  UNL1       -0.2996
     30 H          61.2493   86.5672   11.9401 H       1  UNL1        0.1498
     31 C          62.9950   85.3340   12.2983 C.3     1  UNL1        0.0899
     32 C          62.7725   83.9009   12.6813 C.3     1  UNL1        0.0246
     33 C          62.9773   82.8135   11.6686 C.3     1  UNL1        0.0338
     34 C          62.7548   81.3804   12.0515 C.3     1  UNL1        0.1422
     35 O          62.3276   81.0347   13.4472 O.3     1  UNL1       -0.3538
     36 C          62.1229   82.1221   14.4600 C.3     1  UNL1        0.1422
     37 C          62.3453   83.5552   14.0770 C.3     1  UNL1        0.0338
@<TRIPOS>BOND
     1    27    28    2
     2    28    29   am
     3    29    31    1
     4    31    32    1
     5    32    33    1
     6    33    34    1
     7    34    35    1
     8    35    36    1
     9    36    37    1
    10    28    21    1
    11    21    22   ar
    12    22    23   ar
    13    23    24   ar
    14    24    25   ar
    15    25    26   ar
    16    26     1    1
    17     1     2   am
    18     2     3    2
    19     2     5    1
    20     5     6   ar
    21     6     7   ar
    22     7     8   ar
    23     8    15    1
    24    15    16    1
    25    16    17   ar
    26    17    18   ar
    27    18    19   ar
    28    19    20   ar
    29     8     9   ar
    30     9    10   ar
    31    10    11   ar
    32    11    12   ar
    33    12    13   ar
    34    13    14   ar
    35    37    32    1
    36    26    21   ar
    37    14     5   ar
    38    20    16   ar
    39    14     9   ar
    40    29    30    1
    41     1     4    1
@<TRIPOS>MOLECULE
*****
 37 41 0 0 0
SMALL
GASTEIGER

@<TRIPOS>ATOM
      1 N          64.1081   88.5965   15.0548 N.am    1  UNL1       -0.2791
      2 C          63.9661   90.0744   15.2680 C.2     1  UNL1        0.2495
      3 O          63.2578   90.5920   16.4848 O.2     1  UNL1       -0.2698
      4 H          64.5730   88.2567   14.2562 H       1  UNL1        0.1552
      5 C          64.5324   91.0348   14.2645 C.ar    1  UNL1        0.0537
      6 C          65.6165   91.9893   14.6687 C.ar    1  UNL1        0.0043
      7 C          66.1828   92.9496   13.6652 C.ar    1  UNL1       -0.0022
      8 C          65.6649   92.9555   12.2575 C.ar    1  UNL1        0.0022
      9 C          64.5807   92.0010   11.8532 C.ar    1  UNL1       -0.0019
     10 C          64.0628   92.0069   10.4455 C.ar    1  UNL1       -0.0003
     11 C          62.9786   91.0524   10.0413 C.ar    1  UNL1       -0.0000
     12 C          62.4124   90.0920   11.0448 C.ar    1  UNL1        0.0000
     13 C          62.9302   90.0861   12.4525 C.ar    1  UNL1        0.0001
     14 C          64.0144   91.0406   12.8567 C.ar    1  UNL1        0.0041
     15 C          66.2312   93.9159   11.2540 C.3     1  UNL1        0.1556
     16 N          67.2449   93.4446   10.2539 N.ar    1  UNL1       -0.2257
     17 C          67.4428   93.9952    8.8727 C.ar    1  UNL1        0.1196
     18 C          68.5588   93.2308    8.2245 C.ar    1  UNL1        0.1441
     19 N          69.0506   92.2077    9.2051 N.ar    1  UNL1       -0.1271
     20 N          68.2385   92.3398   10.4593 N.ar    1  UNL1       -0.0634
     21 C          63.3759   86.1888   15.7006 C.ar    1  UNL1        0.1478
     22 N          62.8096   85.2284   16.7041 N.ar    1  UNL1       -0.2380
     23 C          62.4092   85.7153   18.0653 C.ar    1  UNL1        0.0991
     24 C          62.5751   87.1626   18.4229 C.ar    1  UNL1        0.0220
     25 C          63.1414   88.1230   17.4194 C.ar    1  UNL1        0.0180
     26 C          63.5418   87.6361   16.0583 C.ar    1  UNL1        0.0730
     27 O          63.4627   86.5258   13.1260 O.2     1  UNL1       -0.2684
     28 C          63.7763   85.7019   14.3396 C.2     1  UNL1        0.2648
     29 N          64.4904   84.3911   14.1921 N.am    1  UNL1       -0.2996
     30 H          64.6963   83.8503   14.9886 H       1  UNL1        0.1498
     31 C          64.8909   83.9041   12.8309 C.3     1  UNL1        0.0899
     32 C          64.1937   82.7242   12.2214 C.3     1  UNL1        0.0246
     33 C          63.5120   81.7189   13.1016 C.3     1  UNL1        0.0338
     34 C          62.8148   80.5389   12.4920 C.3     1  UNL1        0.1422
     35 O          62.7992   80.3642   11.0023 O.3     1  UNL1       -0.3538
     36 C          63.4809   81.3696   10.1221 C.3     1  UNL1        0.1422
     37 C          64.1781   82.5495   10.7317 C.3     1  UNL1        0.0338
@<TRIPOS>BOND
     1    27    28    2
     2    28    29   am
     3    29    31    1
     4    31    32    1
     5    32    33    1
     6    33    34    1
     7    34    35    1
     8    35    36    1
     9    36    37    1
    10    28    21    1
    11    21    22   ar
    12    22    23   ar
    13    23    24   ar
    14    24    25   ar
    15    25    26   ar
    16    26     1    1
    17     1     2   am
    18     2     3    2
    19     2     5    1
    20     5     6   ar
    21     6     7   ar
    22     7     8   ar
    23     8    15    1
    24    15    16    1
    25    16    17   ar
    26    17    18   ar
    27    18    19   ar
    28    19    20   ar
    29     8     9   ar
    30     9    10   ar
    31    10    11   ar
    32    11    12   ar
    33    12    13   ar
    34    13    14   ar
    35    37    32    1
    36    26    21   ar
    37    14     5   ar
    38    20    16   ar
    39    14     9   ar
    40    29    30    1
    41     1     4    1
@<TRIPOS>MOLECULE
*****
 37 41 0 0 0
SMALL
GASTEIGER

@<TRIPOS>ATOM
      1 N          62.2592   88.7519   10.3417 N.am    1  UNL1       -0.2791
      2 C          61.7910   89.4670   11.5744 C.2     1  UNL1        0.2495
      3 O          60.3230   89.5958   11.8547 O.2     1  UNL1       -0.2698
      4 H          63.2227   88.6674   10.1577 H       1  UNL1        0.1552
      5 C          62.7907   90.0533   12.5267 C.ar    1  UNL1        0.0537
      6 C          62.8601   89.5573   13.9406 C.ar    1  UNL1        0.0043
      7 C          63.8597   90.1435   14.8929 C.ar    1  UNL1       -0.0022
      8 C          64.7901   91.2258   14.4313 C.ar    1  UNL1        0.0022
      9 C          64.7208   91.7219   13.0173 C.ar    1  UNL1       -0.0019
     10 C          65.6511   92.8042   12.5558 C.ar    1  UNL1       -0.0003
     11 C          65.5817   93.3002   11.1419 C.ar    1  UNL1       -0.0000
     12 C          64.5821   92.7139   10.1896 C.ar    1  UNL1        0.0000
     13 C          63.6517   91.6316   10.6511 C.ar    1  UNL1        0.0001
     14 C          63.7211   91.1356   12.0650 C.ar    1  UNL1        0.0041
     15 C          65.7898   91.8121   15.3836 C.3     1  UNL1        0.1556
     16 N          67.1909   92.0876   14.9245 N.ar    1  UNL1       -0.2257
     17 C          67.9033   91.3937   13.8015 C.ar    1  UNL1        0.1196
     18 C          69.2783   91.9827   13.6907 C.ar    1  UNL1        0.1441
     19 N          69.4158   93.0407   14.7452 N.ar    1  UNL1       -0.1271
     20 N          68.1257   93.1055   15.5077 N.ar    1  UNL1       -0.0634
     21 C          61.1831   86.6791    9.2035 C.ar    1  UNL1        0.1478
     22 N          60.1835   86.0928    8.2511 N.ar    1  UNL1       -0.2380
     23 C          59.2602   86.9931    7.4848 C.ar    1  UNL1        0.0991
     24 C          59.3367   88.4795    7.6708 C.ar    1  UNL1        0.0220
     25 C          60.3363   89.0658    8.6231 C.ar    1  UNL1        0.0180
     26 C          61.2596   88.1656    9.3894 C.ar    1  UNL1        0.0730
     27 O          63.2379   85.0904    9.2658 O.2     1  UNL1       -0.2684
     28 C          62.1064   85.7790    9.9698 C.2     1  UNL1        0.2648
     29 N          61.8981   85.5674   11.4401 N.am    1  UNL1       -0.2996
     30 H          61.1555   86.0193   11.9021 H       1  UNL1        0.1498
     31 C          62.8214   84.6672   12.2065 C.3     1  UNL1        0.0899
     32 C          63.1085   84.9432   13.6527 C.3     1  UNL1        0.0246
     33 C          64.1724   85.9305   14.0309 C.3     1  UNL1        0.0338
     34 C          64.4596   86.2066   15.4771 C.3     1  UNL1        0.1422
     35 O          63.6828   85.4951   16.5450 O.3     1  UNL1       -0.3538
     36 C          62.6188   84.5077   16.1667 C.3     1  UNL1        0.1422
     37 C          62.3317   84.2317   14.7206 C.3     1  UNL1        0.0338
@<TRIPOS>BOND
     1    27    28    2
     2    28    29   am
     3    29    31    1
     4    31    32    1
     5    32    33    1
     6    33    34    1
     7    34    35    1
     8    35    36    1
     9    36    37    1
    10    28    21    1
    11    21    22   ar
    12    22    23   ar
    13    23    24   ar
    14    24    25   ar
    15    25    26   ar
    16    26     1    1
    17     1     2   am
    18     2     3    2
    19     2     5    1
    20     5     6   ar
    21     6     7   ar
    22     7     8   ar
    23     8    15    1
    24    15    16    1
    25    16    17   ar
    26    17    18   ar
    27    18    19   ar
    28    19    20   ar
    29     8     9   ar
    30     9    10   ar
    31    10    11   ar
    32    11    12   ar
    33    12    13   ar
    34    13    14   ar
    35    37    32    1
    36    26    21   ar
    37    14     5   ar
    38    20    16   ar
    39    14     9   ar
    40    29    30    1
    41     1     4    1
@<TRIPOS>MOLECULE
*****
 37 41 0 0 0
SMALL
GASTEIGER

@<TRIPOS>ATOM
      1 N          63.9936   88.3277   14.6969 N.am    1  UNL1       -0.2791
      2 C          63.6232   89.7799   14.7585 C.2     1  UNL1        0.2495
      3 O          62.7655   90.2883   15.8793 O.2     1  UNL1       -0.2698
      4 H          64.5565   87.9940   13.9613 H       1  UNL1        0.1552
      5 C          64.1103   90.7238   13.6994 C.ar    1  UNL1        0.0537
      6 C          63.5473   90.6484   12.3111 C.ar    1  UNL1        0.0043
      7 C          64.0344   91.5923   11.2519 C.ar    1  UNL1       -0.0022
      8 C          65.0845   92.6115   11.5810 C.ar    1  UNL1        0.0022
      9 C          65.6476   92.6869   12.9694 C.ar    1  UNL1       -0.0019
     10 C          66.6977   93.7061   13.2985 C.ar    1  UNL1       -0.0003
     11 C          67.2607   93.7815   14.6867 C.ar    1  UNL1       -0.0000
     12 C          66.7736   92.8376   15.7459 C.ar    1  UNL1        0.0000
     13 C          65.7235   91.8184   15.4168 C.ar    1  UNL1        0.0001
     14 C          65.1605   91.7430   14.0285 C.ar    1  UNL1        0.0041
     15 C          65.5716   93.5554   10.5219 C.3     1  UNL1        0.1556
     16 N          66.8514   93.2696    9.7936 N.ar    1  UNL1       -0.2257
     17 C          67.4350   94.0896    8.6814 C.ar    1  UNL1        0.1196
     18 C          68.7166   93.4404    8.2500 C.ar    1  UNL1        0.1441
     19 N          68.9251   92.2191    9.0957 N.ar    1  UNL1       -0.1271
     20 N          67.7723   92.1136   10.0497 N.ar    1  UNL1       -0.0634
     21 C          63.3086   85.9322   15.4337 C.ar    1  UNL1        0.1478
     22 N          62.8215   84.9884   16.4928 N.ar    1  UNL1       -0.2380
     23 C          62.5323   85.4961   17.8744 C.ar    1  UNL1        0.0991
     24 C          62.7301   86.9475   18.1967 C.ar    1  UNL1        0.0220
     25 C          63.2173   87.8914   17.1376 C.ar    1  UNL1        0.0180
     26 C          63.5065   87.3838   15.7561 C.ar    1  UNL1        0.0730
     27 O          63.3050   86.2864   12.8599 O.2     1  UNL1       -0.2684
     28 C          63.5979   85.4246   14.0521 C.2     1  UNL1        0.2648
     29 N          64.1800   84.0552   13.8629 N.am    1  UNL1       -0.2996
     30 H          64.3722   83.4896   14.6455 H       1  UNL1        0.1498
     31 C          64.4692   83.5475   12.4813 C.3     1  UNL1        0.0899
     32 C          63.8671   82.2550   12.0159 C.3     1  UNL1        0.0246
     33 C          63.8190   81.9344   10.5514 C.3     1  UNL1        0.0338
     34 C          63.2168   80.6418   10.0859 C.3     1  UNL1        0.1422
     35 O          62.6627   79.6698   11.0850 O.3     1  UNL1       -0.3538
     36 C          62.7108   79.9905   12.5496 C.3     1  UNL1        0.1422
     37 C          63.3129   81.2830   13.0150 C.3     1  UNL1        0.0338
@<TRIPOS>BOND
     1    27    28    2
     2    28    29   am
     3    29    31    1
     4    31    32    1
     5    32    33    1
     6    33    34    1
     7    34    35    1
     8    35    36    1
     9    36    37    1
    10    28    21    1
    11    21    22   ar
    12    22    23   ar
    13    23    24   ar
    14    24    25   ar
    15    25    26   ar
    16    26     1    1
    17     1     2   am
    18     2     3    2
    19     2     5    1
    20     5     6   ar
    21     6     7   ar
    22     7     8   ar
    23     8    15    1
    24    15    16    1
    25    16    17   ar
    26    17    18   ar
    27    18    19   ar
    28    19    20   ar
    29     8     9   ar
    30     9    10   ar
    31    10    11   ar
    32    11    12   ar
    33    12    13   ar
    34    13    14   ar
    35    37    32    1
    36    26    21   ar
    37    14     5   ar
    38    20    16   ar
    39    14     9   ar
    40    29    30    1
    41     1     4    1
