@<TRIPOS>MOLECULE
*****
 29 32 0 0 0
SMALL
GASTEIGER

@<TRIPOS>ATOM
      1 C          63.8254   90.8575   12.2699 C.ar    1  UNL1        0.1311
      2 C          63.8931   89.5690   13.0349 C.ar    1  UNL1        0.0339
      3 C          63.1258   88.3720   12.5570 C.ar    1  UNL1        0.0027
      4 C          62.2908   88.4634   11.3142 C.ar    1  UNL1        0.0283
      5 C          62.2231   89.7519   10.5493 C.ar    1  UNL1        0.2196
      6 F          61.3882   89.8434    9.3065 F       1  UNL1       -0.1835
      7 N          62.9904   90.9490   11.0271 N.ar    1  UNL1       -0.2035
      8 N          64.5926   92.0546   12.7477 N.pl3   1  UNL1       -0.3144
      9 H          64.1171   92.8116   13.1600 H       1  UNL1        0.1485
     10 C          66.0845   92.0984   12.5972 C.3     1  UNL1        0.1170
     11 F          69.0112   92.2495    8.3063 F       1  UNL1       -0.2025
     12 C          68.1657   92.9512    9.3275 C.ar    1  UNL1        0.1590
     13 C          67.9380   94.4302    9.2243 C.ar    1  UNL1        0.1284
     14 N          67.0925   95.1320   10.2454 N.ar    1  UNL1       -0.2402
     15 C          66.4747   94.3546   11.3697 C.ar    1  UNL1        0.0964
     16 C          66.7024   92.8756   11.4729 C.ar    1  UNL1        0.0188
     17 C          67.5478   92.1739   10.4517 C.ar    1  UNL1        0.0302
     18 C          61.5235   87.2663   10.8364 C.3     1  UNL1        0.0582
     19 C          62.2451   86.1240   10.1850 C.ar    1  UNL1        0.0044
     20 C          62.4633   85.9441    8.7119 C.ar    1  UNL1        0.0966
     21 N          63.2283   84.6699    8.5089 N.ar    1  UNL1       -0.2273
     22 C          63.4829   84.0623    9.8566 C.ar    1  UNL1        0.1403
     23 N          64.1896   82.8068   10.2742 N.ar    1  UNL1       -0.3367
     24 C          64.2885   82.4501   11.7278 C.ar    1  UNL1        0.0850
     25 C          63.6809   83.3488   12.7637 C.ar    1  UNL1        0.0747
     26 CL         63.7799   82.9920   14.2173 Cl      1  UNL1       -0.0807
     27 C          62.9742   84.6042   12.3460 C.ar    1  UNL1        0.0156
     28 C          62.8753   84.9610   10.8925 C.ar    1  UNL1        0.0327
     29 H          64.5884   82.2170    9.5943 H       1  UNL1        0.1674
@<TRIPOS>BOND
     1    11    12    1
     2    12    13   ar
     3    13    14   ar
     4    14    15   ar
     5    15    16   ar
     6    16    10    1
     7    10     8    1
     8     8     1    1
     9     1     2   ar
    10     2     3   ar
    11     3     4   ar
    12     4    18    1
    13    18    19    1
    14    19    20   ar
    15    20    21   ar
    16    21    22   ar
    17    22    23   ar
    18    23    24   ar
    19    24    25   ar
    20    25    26    1
    21    25    27   ar
    22    27    28   ar
    23     4     5   ar
    24     5     6    1
    25     5     7   ar
    26    16    17   ar
    27    17    12   ar
    28     7     1   ar
    29    28    19   ar
    30    28    22    1
    31     8     9    1
    32    23    29    1
@<TRIPOS>MOLECULE
*****
 29 32 0 0 0
SMALL
GASTEIGER

@<TRIPOS>ATOM
      1 C          64.0863   85.3657   15.4729 C.ar    1  UNL1        0.1311
      2 C          64.4595   86.2428   14.3148 C.ar    1  UNL1        0.0339
      3 C          64.2688   87.7278   14.4067 C.ar    1  UNL1        0.0027
      4 C          63.7048   88.3356   15.6567 C.ar    1  UNL1        0.0283
      5 C          63.3316   87.4585   16.8148 C.ar    1  UNL1        0.2196
      6 F          62.7676   88.0663   18.0648 F       1  UNL1       -0.1835
      7 N          63.5223   85.9735   16.7229 N.ar    1  UNL1       -0.2035
      8 N          64.2770   83.8807   15.3811 N.pl3   1  UNL1       -0.3144
      9 H          65.1407   83.4790   15.6300 H       1  UNL1        0.1485
     10 C          63.1518   83.0076   14.9101 C.3     1  UNL1        0.1170
     11 F          64.2697   83.4024    9.8510 F       1  UNL1       -0.2025
     12 C          63.7547   82.5997   11.0088 C.ar    1  UNL1        0.1590
     13 C          63.2837   81.1917   10.7949 C.ar    1  UNL1        0.1284
     14 N          62.7687   80.3891   11.9527 N.ar    1  UNL1       -0.2402
     15 C          62.7248   80.9944   13.3244 C.ar    1  UNL1        0.0964
     16 C          63.1958   82.4024   13.5383 C.ar    1  UNL1        0.0188
     17 C          63.7108   83.2050   12.3805 C.ar    1  UNL1        0.0302
     18 C          63.5141   89.8207   15.7485 C.3     1  UNL1        0.0582
     19 C          64.2454   90.7304   14.8064 C.ar    1  UNL1        0.0044
     20 C          65.3916   91.6306   15.1616 C.ar    1  UNL1        0.0966
     21 N          65.8135   92.3562   13.9185 N.ar    1  UNL1       -0.2273
     22 C          64.9281   91.9046   12.7950 C.ar    1  UNL1        0.1403
     23 N          64.8792   92.2784   11.3432 N.ar    1  UNL1       -0.3367
     24 C          63.8611   91.6475   10.4402 C.ar    1  UNL1        0.0850
     25 C          62.8920   90.6427   10.9890 C.ar    1  UNL1        0.0747
     26 CL         61.8739   90.0118   10.0859 Cl      1  UNL1       -0.0807
     27 C          62.9409   90.2688   12.4408 C.ar    1  UNL1        0.0156
     28 C          63.9590   90.8998   13.3438 C.ar    1  UNL1        0.0327
     29 H          65.5152   92.9379   10.9830 H       1  UNL1        0.1674
@<TRIPOS>BOND
     1    11    12    1
     2    12    13   ar
     3    13    14   ar
     4    14    15   ar
     5    15    16   ar
     6    16    10    1
     7    10     8    1
     8     8     1    1
     9     1     2   ar
    10     2     3   ar
    11     3     4   ar
    12     4    18    1
    13    18    19    1
    14    19    20   ar
    15    20    21   ar
    16    21    22   ar
    17    22    23   ar
    18    23    24   ar
    19    24    25   ar
    20    25    26    1
    21    25    27   ar
    22    27    28   ar
    23     4     5   ar
    24     5     6    1
    25     5     7   ar
    26    16    17   ar
    27    17    12   ar
    28     7     1   ar
    29    28    19   ar
    30    28    22    1
    31     8     9    1
    32    23    29    1
@<TRIPOS>MOLECULE
*****
 29 32 0 0 0
SMALL
GASTEIGER

@<TRIPOS>ATOM
      1 C          63.6971   84.7898   15.4469 C.ar    1  UNL1        0.1311
      2 C          64.2518   85.5967   14.3105 C.ar    1  UNL1        0.0339
      3 C          64.2880   87.0935   14.4012 C.ar    1  UNL1        0.0027
      4 C          63.7695   87.7834   15.6280 C.ar    1  UNL1        0.0283
      5 C          63.2148   86.9765   16.7644 C.ar    1  UNL1        0.2196
      6 F          62.6964   87.6664   17.9912 F       1  UNL1       -0.1835
      7 N          63.1787   85.4797   16.6737 N.ar    1  UNL1       -0.2035
      8 N          63.6609   83.2930   15.3563 N.pl3   1  UNL1       -0.3144
      9 H          64.3655   82.7566   15.7866 H       1  UNL1        0.1485
     10 C          62.5513   82.6133   14.6101 C.3     1  UNL1        0.1170
     11 F          64.0964   83.2272    9.6872 F       1  UNL1       -0.2025
     12 C          63.5773   82.3475   10.7857 C.ar    1  UNL1        0.1590
     13 C          63.3116   80.8951   10.5212 C.ar    1  UNL1        0.1284
     14 N          62.7926   80.0154   11.6197 N.ar    1  UNL1       -0.2402
     15 C          62.5391   80.5882   12.9827 C.ar    1  UNL1        0.0964
     16 C          62.8047   82.0406   13.2471 C.ar    1  UNL1        0.0188
     17 C          63.3238   82.9203   12.1486 C.ar    1  UNL1        0.0302
     18 C          63.8057   89.2803   15.7186 C.3     1  UNL1        0.0582
     19 C          63.9422   90.1040   14.4725 C.ar    1  UNL1        0.0044
     20 C          63.1242   89.9560   13.2238 C.ar    1  UNL1        0.0966
     21 N          63.5971   90.9808   12.2358 N.ar    1  UNL1       -0.2273
     22 C          64.7072   91.7622   12.8739 C.ar    1  UNL1        0.1403
     23 N          65.5513   92.8972   12.3747 N.ar    1  UNL1       -0.3367
     24 C          66.6088   93.4902   13.2579 C.ar    1  UNL1        0.0850
     25 C          66.8221   92.9483   14.6402 C.ar    1  UNL1        0.0747
     26 CL         67.8796   93.5414   15.5234 Cl      1  UNL1       -0.0807
     27 C          65.9779   91.8134   15.1394 C.ar    1  UNL1        0.0156
     28 C          64.9204   91.2203   14.2562 C.ar    1  UNL1        0.0327
     29 H          65.4114   93.2529   11.4675 H       1  UNL1        0.1674
@<TRIPOS>BOND
     1    11    12    1
     2    12    13   ar
     3    13    14   ar
     4    14    15   ar
     5    15    16   ar
     6    16    10    1
     7    10     8    1
     8     8     1    1
     9     1     2   ar
    10     2     3   ar
    11     3     4   ar
    12     4    18    1
    13    18    19    1
    14    19    20   ar
    15    20    21   ar
    16    21    22   ar
    17    22    23   ar
    18    23    24   ar
    19    24    25   ar
    20    25    26    1
    21    25    27   ar
    22    27    28   ar
    23     4     5   ar
    24     5     6    1
    25     5     7   ar
    26    16    17   ar
    27    17    12   ar
    28     7     1   ar
    29    28    19   ar
    30    28    22    1
    31     8     9    1
    32    23    29    1
@<TRIPOS>MOLECULE
*****
 29 32 0 0 0
SMALL
GASTEIGER

@<TRIPOS>ATOM
      1 C          63.4078   83.8226   13.1274 C.ar    1  UNL1        0.1311
      2 C          62.3726   84.8780   12.8732 C.ar    1  UNL1        0.0339
      3 C          62.0885   85.3274   11.4706 C.ar    1  UNL1        0.0027
      4 C          62.8397   84.7217   10.3223 C.ar    1  UNL1        0.0283
      5 C          63.8749   83.6663   10.5764 C.ar    1  UNL1        0.2196
      6 F          64.6261   83.0606    9.4281 F       1  UNL1       -0.1835
      7 N          64.1589   83.2169   11.9790 N.ar    1  UNL1       -0.2035
      8 N          63.6919   83.3731   14.5299 N.pl3   1  UNL1       -0.3144
      9 H          63.3407   82.5113   14.8513 H       1  UNL1        0.1485
     10 C          64.5110   84.2365   15.4430 C.3     1  UNL1        0.1170
     11 F          64.7386   89.2588   14.1297 F       1  UNL1       -0.2025
     12 C          64.2256   88.1731   15.0286 C.ar    1  UNL1        0.1590
     13 C          63.3134   88.5128   16.1699 C.ar    1  UNL1        0.1284
     14 N          62.8004   87.4271   17.0688 N.ar    1  UNL1       -0.2402
     15 C          63.1996   86.0017   16.8265 C.ar    1  UNL1        0.0964
     16 C          64.1118   85.6620   15.6852 C.ar    1  UNL1        0.0188
     17 C          64.6248   86.7477   14.7863 C.ar    1  UNL1        0.0302
     18 C          62.5556   85.1712    8.9196 C.3     1  UNL1        0.0582
     19 C          61.5048   86.2106    8.6635 C.ar    1  UNL1        0.0044
     20 C          60.2863   86.0398    7.8055 C.ar    1  UNL1        0.0966
     21 N          59.5166   87.3269    7.8322 N.ar    1  UNL1       -0.2273
     22 C          60.2593   88.2932    8.7066 C.ar    1  UNL1        0.1403
     23 N          59.9754   89.7122    9.1013 N.ar    1  UNL1       -0.3367
     24 C          60.9204   90.4413   10.0098 C.ar    1  UNL1        0.0850
     25 C          62.1492   89.7513   10.5236 C.ar    1  UNL1        0.0747
     26 CL         63.0942   90.4805   11.4322 Cl      1  UNL1       -0.0807
     27 C          62.4331   88.3324   10.1289 C.ar    1  UNL1        0.0156
     28 C          61.4881   87.6033    9.2204 C.ar    1  UNL1        0.0327
     29 H          59.1689   90.1650    8.7641 H       1  UNL1        0.1674
@<TRIPOS>BOND
     1    11    12    1
     2    12    13   ar
     3    13    14   ar
     4    14    15   ar
     5    15    16   ar
     6    16    10    1
     7    10     8    1
     8     8     1    1
     9     1     2   ar
    10     2     3   ar
    11     3     4   ar
    12     4    18    1
    13    18    19    1
    14    19    20   ar
    15    20    21   ar
    16    21    22   ar
    17    22    23   ar
    18    23    24   ar
    19    24    25   ar
    20    25    26    1
    21    25    27   ar
    22    27    28   ar
    23     4     5   ar
    24     5     6    1
    25     5     7   ar
    26    16    17   ar
    27    17    12   ar
    28     7     1   ar
    29    28    19   ar
    30    28    22    1
    31     8     9    1
    32    23    29    1
@<TRIPOS>MOLECULE
*****
 29 32 0 0 0
SMALL
GASTEIGER

@<TRIPOS>ATOM
      1 C          62.3017   86.8384   10.8261 C.ar    1  UNL1        0.1311
      2 C          61.9518   87.8558    9.7809 C.ar    1  UNL1        0.0339
      3 C          62.1882   89.3134   10.0444 C.ar    1  UNL1        0.0027
      4 C          62.7746   89.7536   11.3529 C.ar    1  UNL1        0.0283
      5 C          63.1246   88.7362   12.3981 C.ar    1  UNL1        0.2196
      6 F          63.7110   89.1764   13.7066 F       1  UNL1       -0.1835
      7 N          62.8881   87.2786   12.1347 N.ar    1  UNL1       -0.2035
      8 N          62.0653   85.3807   10.5627 N.pl3   1  UNL1       -0.3144
      9 H          61.2325   85.0880   10.1268 H       1  UNL1        0.1485
     10 C          63.0977   84.3690   10.9635 C.3     1  UNL1        0.1170
     11 F          62.4132   79.4860   12.6030 F       1  UNL1       -0.2025
     12 C          62.4649   80.9574   12.8898 C.ar    1  UNL1        0.1590
     13 C          62.2261   81.4588   14.2832 C.ar    1  UNL1        0.1284
     14 N          62.2779   82.9302   14.5700 N.ar    1  UNL1       -0.2402
     15 C          62.5684   83.9002   13.4634 C.ar    1  UNL1        0.0964
     16 C          62.8072   83.3989   12.0700 C.ar    1  UNL1        0.0188
     17 C          62.7555   81.9275   11.7832 C.ar    1  UNL1        0.0302
     18 C          63.0111   91.2113   11.6163 C.3     1  UNL1        0.0582
     19 C          64.4083   91.7569   11.6138 C.ar    1  UNL1        0.0044
     20 C          65.2322   92.0655   10.3989 C.ar    1  UNL1        0.0966
     21 N          66.5600   92.5890   10.8600 N.ar    1  UNL1       -0.2273
     22 C          66.5569   92.6040   12.3600 C.ar    1  UNL1        0.1403
     23 N          67.5931   93.0194   13.3617 N.ar    1  UNL1       -0.3367
     24 C          67.2995   92.9206   14.8294 C.ar    1  UNL1        0.0850
     25 C          65.9696   92.4063   15.2952 C.ar    1  UNL1        0.0747
     26 CL         65.6760   92.3075   16.7629 Cl      1  UNL1       -0.0807
     27 C          64.9334   91.9909   14.2935 C.ar    1  UNL1        0.0156
     28 C          65.2270   92.0897   12.8258 C.ar    1  UNL1        0.0327
     29 H          68.4659   93.3569   13.0560 H       1  UNL1        0.1674
@<TRIPOS>BOND
     1    11    12    1
     2    12    13   ar
     3    13    14   ar
     4    14    15   ar
     5    15    16   ar
     6    16    10    1
     7    10     8    1
     8     8     1    1
     9     1     2   ar
    10     2     3   ar
    11     3     4   ar
    12     4    18    1
    13    18    19    1
    14    19    20   ar
    15    20    21   ar
    16    21    22   ar
    17    22    23   ar
    18    23    24   ar
    19    24    25   ar
    20    25    26    1
    21    25    27   ar
    22    27    28   ar
    23     4     5   ar
    24     5     6    1
    25     5     7   ar
    26    16    17   ar
    27    17    12   ar
    28     7     1   ar
    29    28    19   ar
    30    28    22    1
    31     8     9    1
    32    23    29    1
@<TRIPOS>MOLECULE
*****
 29 32 0 0 0
SMALL
GASTEIGER

@<TRIPOS>ATOM
      1 C          61.9559   88.8604   11.4190 C.ar    1  UNL1        0.1311
      2 C          62.2444   89.5611   10.1244 C.ar    1  UNL1        0.0339
      3 C          63.1289   90.7724   10.1082 C.ar    1  UNL1        0.0027
      4 C          63.7249   91.2831   11.3864 C.ar    1  UNL1        0.0283
      5 C          63.4364   90.5824   12.6810 C.ar    1  UNL1        0.2196
      6 F          64.0324   91.0931   13.9593 F       1  UNL1       -0.1835
      7 N          62.5519   89.3711   12.6972 N.ar    1  UNL1       -0.2035
      8 N          61.0714   87.6491   11.4353 N.pl3   1  UNL1       -0.3144
      9 H          60.2625   87.6378   11.9964 H       1  UNL1        0.1485
     10 C          61.4191   86.4550   10.5967 C.3     1  UNL1        0.1170
     11 F          64.6325   82.4571    9.7656 F       1  UNL1       -0.2025
     12 C          63.9732   83.4195   10.7085 C.ar    1  UNL1        0.1590
     13 C          64.2612   83.3454   12.1787 C.ar    1  UNL1        0.1284
     14 N          63.6018   84.3078   13.1216 N.ar    1  UNL1       -0.2402
     15 C          62.6545   85.3444   12.5942 C.ar    1  UNL1        0.0964
     16 C          62.3665   85.4185   11.1239 C.ar    1  UNL1        0.0188
     17 C          63.0258   84.4560   10.1811 C.ar    1  UNL1        0.0302
     18 C          64.6095   92.4945   11.3701 C.3     1  UNL1        0.0582
     19 C          66.0998   92.3358   11.4311 C.ar    1  UNL1        0.0044
     20 C          67.0187   92.1801   10.2557 C.ar    1  UNL1        0.0966
     21 N          68.4197   92.0530   10.7763 N.ar    1  UNL1       -0.2273
     22 C          68.3667   92.1301   12.2734 C.ar    1  UNL1        0.1403
     23 N          69.4387   92.0638   13.3204 N.ar    1  UNL1       -0.3367
     24 C          69.0770   92.1722   14.7721 C.ar    1  UNL1        0.0850
     25 C          67.6433   92.3470   15.1767 C.ar    1  UNL1        0.0747
     26 CL         67.2816   92.4554   16.6285 Cl      1  UNL1       -0.0807
     27 C          66.5712   92.4133   14.1297 C.ar    1  UNL1        0.0156
     28 C          66.9329   92.3049   12.6781 C.ar    1  UNL1        0.0327
     29 H          70.3798   91.9490   13.0548 H       1  UNL1        0.1674
@<TRIPOS>BOND
     1    11    12    1
     2    12    13   ar
     3    13    14   ar
     4    14    15   ar
     5    15    16   ar
     6    16    10    1
     7    10     8    1
     8     8     1    1
     9     1     2   ar
    10     2     3   ar
    11     3     4   ar
    12     4    18    1
    13    18    19    1
    14    19    20   ar
    15    20    21   ar
    16    21    22   ar
    17    22    23   ar
    18    23    24   ar
    19    24    25   ar
    20    25    26    1
    21    25    27   ar
    22    27    28   ar
    23     4     5   ar
    24     5     6    1
    25     5     7   ar
    26    16    17   ar
    27    17    12   ar
    28     7     1   ar
    29    28    19   ar
    30    28    22    1
    31     8     9    1
    32    23    29    1
@<TRIPOS>MOLECULE
*****
 29 32 0 0 0
SMALL
GASTEIGER

@<TRIPOS>ATOM
      1 C          63.1434   90.4522   11.8759 C.ar    1  UNL1        0.1311
      2 C          63.4615   89.2146   12.6615 C.ar    1  UNL1        0.0339
      3 C          62.9428   87.8830   12.2056 C.ar    1  UNL1        0.0027
      4 C          62.1060   87.7890   10.9643 C.ar    1  UNL1        0.0283
      5 C          61.7879   89.0267   10.1787 C.ar    1  UNL1        0.2196
      6 F          60.9511   88.9327    8.9374 F       1  UNL1       -0.1835
      7 N          62.3066   90.3582   10.6346 N.ar    1  UNL1       -0.2035
      8 N          63.6621   91.7838   12.3317 N.pl3   1  UNL1       -0.3144
      9 H          63.1065   92.3577   12.9071 H       1  UNL1        0.1485
     10 C          65.0273   92.2411   11.9107 C.3     1  UNL1        0.1170
     11 F          66.6846   92.7441   16.8097 F       1  UNL1       -0.2025
     12 C          66.9776   92.5206   15.3557 C.ar    1  UNL1        0.1590
     13 C          68.3923   92.3251   14.8971 C.ar    1  UNL1        0.1284
     14 N          68.6854   92.1016   13.4431 N.ar    1  UNL1       -0.2402
     15 C          67.5637   92.0736   12.4477 C.ar    1  UNL1        0.0964
     16 C          66.1489   92.2691   12.9062 C.ar    1  UNL1        0.0188
     17 C          65.8559   92.4926   14.3602 C.ar    1  UNL1        0.0302
     18 C          61.5872   86.4573   10.5085 C.3     1  UNL1        0.0582
     19 C          62.5084   85.2752   10.4456 C.ar    1  UNL1        0.0044
     20 C          63.1909   84.7537    9.2159 C.ar    1  UNL1        0.0966
     21 N          64.0131   83.5632    9.6118 N.ar    1  UNL1       -0.2273
     22 C          63.8388   83.3490   11.0861 C.ar    1  UNL1        0.1403
     23 N          64.4067   82.3272   12.0260 N.ar    1  UNL1       -0.3367
     24 C          64.0447   82.3634   13.4811 C.ar    1  UNL1        0.0850
     25 C          63.1147   83.4215   13.9965 C.ar    1  UNL1        0.0747
     26 CL         62.7527   83.4578   15.4517 Cl      1  UNL1       -0.0807
     27 C          62.5468   84.4434   13.0567 C.ar    1  UNL1        0.0156
     28 C          62.9088   84.4071   11.6015 C.ar    1  UNL1        0.0327
     29 H          65.0171   81.6327   11.6877 H       1  UNL1        0.1674
@<TRIPOS>BOND
     1    11    12    1
     2    12    13   ar
     3    13    14   ar
     4    14    15   ar
     5    15    16   ar
     6    16    10    1
     7    10     8    1
     8     8     1    1
     9     1     2   ar
    10     2     3   ar
    11     3     4   ar
    12     4    18    1
    13    18    19    1
    14    19    20   ar
    15    20    21   ar
    16    21    22   ar
    17    22    23   ar
    18    23    24   ar
    19    24    25   ar
    20    25    26    1
    21    25    27   ar
    22    27    28   ar
    23     4     5   ar
    24     5     6    1
    25     5     7   ar
    26    16    17   ar
    27    17    12   ar
    28     7     1   ar
    29    28    19   ar
    30    28    22    1
    31     8     9    1
    32    23    29    1
@<TRIPOS>MOLECULE
*****
 29 32 0 0 0
SMALL
GASTEIGER

@<TRIPOS>ATOM
      1 C          63.3617   82.6015   11.7674 C.ar    1  UNL1        0.1311
      2 C          64.1740   82.5858   10.5065 C.ar    1  UNL1        0.0339
      3 C          63.9914   83.6672    9.4832 C.ar    1  UNL1        0.0027
      4 C          62.9964   84.7643    9.7208 C.ar    1  UNL1        0.0283
      5 C          62.1841   84.7800   10.9817 C.ar    1  UNL1        0.2196
      6 F          61.1892   85.8771   11.2193 F       1  UNL1       -0.1835
      7 N          62.3668   83.6986   12.0050 N.ar    1  UNL1       -0.2035
      8 N          63.5443   81.5201   12.7908 N.pl3   1  UNL1       -0.3144
      9 H          63.8726   80.6334   12.5167 H       1  UNL1        0.1485
     10 C          63.2268   81.7897   14.2318 C.3     1  UNL1        0.1170
     11 F          66.1390   86.0349   14.9374 F       1  UNL1       -0.2025
     12 C          64.8513   85.2939   15.1439 C.ar    1  UNL1        0.1590
     13 C          63.7319   85.9344   15.9099 C.ar    1  UNL1        0.1284
     14 N          62.4441   85.1935   16.1164 N.ar    1  UNL1       -0.2402
     15 C          62.2758   83.8119   15.5571 C.ar    1  UNL1        0.0964
     16 C          63.3952   83.1713   14.7911 C.ar    1  UNL1        0.0188
     17 C          64.6829   83.9123   14.5846 C.ar    1  UNL1        0.0302
     18 C          62.8138   85.8457    8.6974 C.3     1  UNL1        0.0582
     19 C          61.6396   86.7745    8.7891 C.ar    1  UNL1        0.0044
     20 C          60.2938   86.5590    8.1625 C.ar    1  UNL1        0.0966
     21 N          59.4275   87.7332    8.5097 N.ar    1  UNL1       -0.2273
     22 C          60.2377   88.6745    9.3509 C.ar    1  UNL1        0.1403
     23 N          59.9073   89.9946    9.9818 N.ar    1  UNL1       -0.3367
     24 C          60.9439   90.7221   10.7855 C.ar    1  UNL1        0.0850
     25 C          62.3111   90.1296   10.9582 C.ar    1  UNL1        0.0747
     26 CL         63.3478   90.8572   11.7619 Cl      1  UNL1       -0.0807
     27 C          62.6416   88.8095   10.3272 C.ar    1  UNL1        0.0156
     28 C          61.6049   88.0820    9.5235 C.ar    1  UNL1        0.0327
     29 H          59.0099   90.3834    9.8685 H       1  UNL1        0.1674
@<TRIPOS>BOND
     1    11    12    1
     2    12    13   ar
     3    13    14   ar
     4    14    15   ar
     5    15    16   ar
     6    16    10    1
     7    10     8    1
     8     8     1    1
     9     1     2   ar
    10     2     3   ar
    11     3     4   ar
    12     4    18    1
    13    18    19    1
    14    19    20   ar
    15    20    21   ar
    16    21    22   ar
    17    22    23   ar
    18    23    24   ar
    19    24    25   ar
    20    25    26    1
    21    25    27   ar
    22    27    28   ar
    23     4     5   ar
    24     5     6    1
    25     5     7   ar
    26    16    17   ar
    27    17    12   ar
    28     7     1   ar
    29    28    19   ar
    30    28    22    1
    31     8     9    1
    32    23    29    1
@<TRIPOS>MOLECULE
*****
 29 32 0 0 0
SMALL
GASTEIGER

@<TRIPOS>ATOM
      1 C          59.3542   88.6840    7.2542 C.ar    1  UNL1        0.1311
      2 C          59.1464   87.2112    7.4484 C.ar    1  UNL1        0.0339
      3 C          59.7866   86.5102    8.6098 C.ar    1  UNL1        0.0027
      4 C          60.6346   87.2819    9.5769 C.ar    1  UNL1        0.0283
      5 C          60.8424   88.7547    9.3827 C.ar    1  UNL1        0.2196
      6 F          61.6904   89.5264   10.3498 F       1  UNL1       -0.1835
      7 N          60.2022   89.4557    8.2213 N.ar    1  UNL1       -0.2035
      8 N          58.7140   89.3850    6.0929 N.pl3   1  UNL1       -0.3144
      9 H          58.2156   88.8678    5.4196 H       1  UNL1        0.1485
     10 C          58.8332   90.8742    5.9574 C.3     1  UNL1        0.1170
     11 F          63.3497   91.2113    3.4104 F       1  UNL1       -0.2025
     12 C          61.9199   91.6315    3.5808 C.ar    1  UNL1        0.1590
     13 C          61.3185   92.6406    2.6480 C.ar    1  UNL1        0.1284
     14 N          59.8887   93.0609    2.8183 N.ar    1  UNL1       -0.2402
     15 C          59.0603   92.4721    3.9215 C.ar    1  UNL1        0.0964
     16 C          59.6617   91.4630    4.8543 C.ar    1  UNL1        0.0188
     17 C          61.0915   91.0427    4.6839 C.ar    1  UNL1        0.0302
     18 C          61.2748   86.5808   10.7383 C.3     1  UNL1        0.0582
     19 C          62.2705   85.4852   10.4967 C.ar    1  UNL1        0.0044
     20 C          62.8795   85.1231    9.1747 C.ar    1  UNL1        0.0966
     21 N          63.8174   83.9735    9.3958 N.ar    1  UNL1       -0.2273
     22 C          63.7879   83.6251   10.8545 C.ar    1  UNL1        0.1403
     23 N          64.5080   82.5779   11.6510 N.ar    1  UNL1       -0.3367
     24 C          64.2722   82.4649   13.1280 C.ar    1  UNL1        0.0850
     25 C          63.3161   83.3992   13.8084 C.ar    1  UNL1        0.0747
     26 CL         63.0802   83.2863   15.2855 Cl      1  UNL1       -0.0807
     27 C          62.5959   84.4465   13.0119 C.ar    1  UNL1        0.0156
     28 C          62.8318   84.5594   11.5349 C.ar    1  UNL1        0.0327
     29 H          65.1355   81.9646   11.2044 H       1  UNL1        0.1674
@<TRIPOS>BOND
     1    11    12    1
     2    12    13   ar
     3    13    14   ar
     4    14    15   ar
     5    15    16   ar
     6    16    10    1
     7    10     8    1
     8     8     1    1
     9     1     2   ar
    10     2     3   ar
    11     3     4   ar
    12     4    18    1
    13    18    19    1
    14    19    20   ar
    15    20    21   ar
    16    21    22   ar
    17    22    23   ar
    18    23    24   ar
    19    24    25   ar
    20    25    26    1
    21    25    27   ar
    22    27    28   ar
    23     4     5   ar
    24     5     6    1
    25     5     7   ar
    26    16    17   ar
    27    17    12   ar
    28     7     1   ar
    29    28    19   ar
    30    28    22    1
    31     8     9    1
    32    23    29    1
