@<TRIPOS>MOLECULE
*****
 17 19 0 0 0
SMALL
GASTEIGER

@<TRIPOS>ATOM
      1 C          63.7483   89.7556   12.6833 C.ar    1  UNL1        0.2034
      2 N          63.6551   88.3558   13.2141 N.ar    1  UNL1       -0.0560
      3 O          62.7652   87.5705   12.2968 O.2     1  UNL1       -0.3370
      4 C          62.3085   88.4850   11.1990 C.ar    1  UNL1        0.2361
      5 N          62.9161   89.8354   11.4379 N.ar    1  UNL1       -0.1908
      6 C          65.5785   92.0239   15.3768 C.ar    1  UNL1        0.0990
      7 C          64.7913   90.9011   14.7690 C.ar    1  UNL1        0.0238
      8 C          64.5356   90.8785   13.2911 C.ar    1  UNL1        0.0422
      9 C          65.0671   91.9787   12.4211 C.ar    1  UNL1        0.0238
     10 C          65.8543   93.1015   13.0289 C.ar    1  UNL1        0.0990
     11 N          66.1100   93.1241   14.5068 N.ar    1  UNL1       -0.2423
     12 C          61.4031   88.1141   10.0620 C.3     1  UNL1        0.0793
     13 C          61.2042   86.6717    9.7015 C.3     1  UNL1        0.0093
     14 C          60.2988   86.3009    8.5645 C.3     1  UNL1        0.0005
     15 C          59.5924   87.3724    7.7881 C.3     1  UNL1        0.0000
     16 C          59.7913   88.8147    8.1486 C.3     1  UNL1        0.0005
     17 C          60.6967   89.1856    9.2856 C.3     1  UNL1        0.0093
@<TRIPOS>BOND
     1     6     7   ar
     2     7     8   ar
     3     8     1    1
     4     1     2   ar
     5     2     3   ar
     6     3     4   ar
     7     4    12    1
     8    12    13    1
     9    13    14    1
    10    14    15    1
    11    15    16    1
    12    16    17    1
    13     4     5   ar
    14     8     9   ar
    15     9    10   ar
    16    10    11   ar
    17    11     6   ar
    18     5     1   ar
    19    17    12    1
@<TRIPOS>MOLECULE
*****
 17 19 0 0 0
SMALL
GASTEIGER

@<TRIPOS>ATOM
      1 C          63.3556   90.5843   11.7420 C.ar    1  UNL1        0.2034
      2 N          62.5634   89.8970   12.8143 N.ar    1  UNL1       -0.0560
      3 O          61.5801   88.9804   12.1488 O.2     1  UNL1       -0.3370
      4 C          61.7647   89.1011   10.6650 C.ar    1  UNL1        0.2361
      5 N          62.8620   90.0924   10.4137 N.ar    1  UNL1       -0.1908
      6 C          65.9955   93.4646   11.0454 C.ar    1  UNL1        0.0990
      7 C          64.9016   92.4615   10.8277 C.ar    1  UNL1        0.0238
      8 C          64.4495   91.5873   11.9597 C.ar    1  UNL1        0.0422
      9 C          65.0913   91.7162   13.3093 C.ar    1  UNL1        0.0238
     10 C          66.1851   92.7192   13.5270 C.ar    1  UNL1        0.0990
     11 N          66.6372   93.5934   12.3950 N.ar    1  UNL1       -0.2423
     12 C          60.9883   88.3606    9.6168 C.3     1  UNL1        0.0793
     13 C          60.0911   89.1113    8.6779 C.3     1  UNL1        0.0093
     14 C          59.3147   88.3708    7.6296 C.3     1  UNL1        0.0005
     15 C          59.4354   86.8796    7.5204 C.3     1  UNL1        0.0000
     16 C          60.3326   86.1290    8.4593 C.3     1  UNL1        0.0005
     17 C          61.1090   86.8695    9.5075 C.3     1  UNL1        0.0093
@<TRIPOS>BOND
     1     6     7   ar
     2     7     8   ar
     3     8     1    1
     4     1     2   ar
     5     2     3   ar
     6     3     4   ar
     7     4    12    1
     8    12    13    1
     9    13    14    1
    10    14    15    1
    11    15    16    1
    12    16    17    1
    13     4     5   ar
    14     8     9   ar
    15     9    10   ar
    16    10    11   ar
    17    11     6   ar
    18     5     1   ar
    19    17    12    1
@<TRIPOS>MOLECULE
*****
 17 19 0 0 0
SMALL
GASTEIGER

@<TRIPOS>ATOM
      1 C          63.8916   86.7277   14.8793 C.ar    1  UNL1        0.2034
      2 N          64.1726   85.6888   15.9241 N.ar    1  UNL1       -0.0560
      3 O          64.1151   84.3421   15.2660 O.2     1  UNL1       -0.3370
      4 C          63.7986   84.5487   13.8143 C.ar    1  UNL1        0.2361
      5 N          63.6605   86.0231   13.5754 N.ar    1  UNL1       -0.1908
      6 C          63.3378   90.2437   16.6345 C.ar    1  UNL1        0.0990
      7 C          63.3802   88.7607   16.4141 C.ar    1  UNL1        0.0238
      8 C          63.8492   88.2109   15.0997 C.ar    1  UNL1        0.0422
      9 C          64.2758   89.1441   14.0056 C.ar    1  UNL1        0.0238
     10 C          64.2334   90.6272   14.2260 C.ar    1  UNL1        0.0990
     11 N          63.7644   91.1770   15.5405 N.ar    1  UNL1       -0.2423
     12 C          63.6469   83.4703   12.7828 C.3     1  UNL1        0.0793
     13 C          64.1785   83.6791   11.3958 C.3     1  UNL1        0.0093
     14 C          64.0268   82.6007   10.3643 C.3     1  UNL1        0.0005
     15 C          63.3434   81.3135   10.7198 C.3     1  UNL1        0.0000
     16 C          62.8118   81.1048   12.1068 C.3     1  UNL1        0.0005
     17 C          62.9635   82.1832   13.1383 C.3     1  UNL1        0.0093
@<TRIPOS>BOND
     1     6     7   ar
     2     7     8   ar
     3     8     1    1
     4     1     2   ar
     5     2     3   ar
     6     3     4   ar
     7     4    12    1
     8    12    13    1
     9    13    14    1
    10    14    15    1
    11    15    16    1
    12    16    17    1
    13     4     5   ar
    14     8     9   ar
    15     9    10   ar
    16    10    11   ar
    17    11     6   ar
    18     5     1   ar
    19    17    12    1
@<TRIPOS>MOLECULE
*****
 17 19 0 0 0
SMALL
GASTEIGER

@<TRIPOS>ATOM
      1 C          63.8451   87.4180   14.1496 C.ar    1  UNL1        0.2034
      2 N          64.0574   86.8803   15.5337 N.ar    1  UNL1       -0.0560
      3 O          63.8136   85.4006   15.4986 O.2     1  UNL1       -0.3370
      4 C          63.4506   85.0238   14.0928 C.ar    1  UNL1        0.2361
      5 N          63.4700   86.2706   13.2591 N.ar    1  UNL1       -0.1908
      6 C          63.4447   90.7695   12.0622 C.ar    1  UNL1        0.0990
      7 C          63.3063   89.3361   12.4821 C.ar    1  UNL1        0.0238
      8 C          63.9836   88.8514   13.7297 C.ar    1  UNL1        0.0422
      9 C          64.7992   89.7999   14.5572 C.ar    1  UNL1        0.0238
     10 C          64.9376   91.2332   14.1373 C.ar    1  UNL1        0.0990
     11 N          64.2604   91.7180   12.8898 N.ar    1  UNL1       -0.2423
     12 C          63.1252   83.6428   13.6062 C.3     1  UNL1        0.0793
     13 C          62.4497   82.6649   14.5213 C.3     1  UNL1        0.0093
     14 C          62.1243   81.2839   14.0347 C.3     1  UNL1        0.0005
     15 C          62.4744   80.8807   12.6330 C.3     1  UNL1        0.0000
     16 C          63.1499   81.8586   11.7178 C.3     1  UNL1        0.0005
     17 C          63.4753   83.2396   12.2044 C.3     1  UNL1        0.0093
@<TRIPOS>BOND
     1     6     7   ar
     2     7     8   ar
     3     8     1    1
     4     1     2   ar
     5     2     3   ar
     6     3     4   ar
     7     4    12    1
     8    12    13    1
     9    13    14    1
    10    14    15    1
    11    15    16    1
    12    16    17    1
    13     4     5   ar
    14     8     9   ar
    15     9    10   ar
    16    10    11   ar
    17    11     6   ar
    18     5     1   ar
    19    17    12    1
@<TRIPOS>MOLECULE
*****
 17 19 0 0 0
SMALL
GASTEIGER

@<TRIPOS>ATOM
      1 C          62.5802   85.1223   12.1920 C.ar    1  UNL1        0.2034
      2 N          63.0600   86.4886   12.5831 N.ar    1  UNL1       -0.0560
      3 O          62.4538   87.4814   11.6360 O.2     1  UNL1       -0.3370
      4 C          61.5994   86.7286   10.6595 C.ar    1  UNL1        0.2361
      5 N          61.6775   85.2706   11.0032 N.ar    1  UNL1       -0.1908
      6 C          63.0993   81.2409   12.8362 C.ar    1  UNL1        0.0990
      7 C          62.7396   82.5293   12.1577 C.ar    1  UNL1        0.0238
      8 C          62.9399   83.8338   12.8706 C.ar    1  UNL1        0.0422
      9 C          63.4998   83.8498   14.2621 C.ar    1  UNL1        0.0238
     10 C          63.8594   82.5613   14.9406 C.ar    1  UNL1        0.0990
     11 N          63.6592   81.2569   14.2277 N.ar    1  UNL1       -0.2423
     12 C          60.8062   87.3285    9.5366 C.3     1  UNL1        0.0793
     13 C          60.7870   88.8159    9.3430 C.3     1  UNL1        0.0093
     14 C          59.9938   89.4158    8.2201 C.3     1  UNL1        0.0005
     15 C          59.2198   88.5284    7.2908 C.3     1  UNL1        0.0000
     16 C          59.2390   87.0410    7.4845 C.3     1  UNL1        0.0005
     17 C          60.0322   86.4411    8.6074 C.3     1  UNL1        0.0093
@<TRIPOS>BOND
     1     6     7   ar
     2     7     8   ar
     3     8     1    1
     4     1     2   ar
     5     2     3   ar
     6     3     4   ar
     7     4    12    1
     8    12    13    1
     9    13    14    1
    10    14    15    1
    11    15    16    1
    12    16    17    1
    13     4     5   ar
    14     8     9   ar
    15     9    10   ar
    16    10    11   ar
    17    11     6   ar
    18     5     1   ar
    19    17    12    1
@<TRIPOS>MOLECULE
*****
 17 19 0 0 0
SMALL
GASTEIGER

@<TRIPOS>ATOM
      1 C          63.0203   87.7914   12.5164 C.ar    1  UNL1        0.2034
      2 N          61.9086   87.5803   11.5318 N.ar    1  UNL1       -0.0560
      3 O          61.6416   86.1069   11.4431 O.2     1  UNL1       -0.3370
      4 C          62.5884   85.4074   12.3728 C.ar    1  UNL1        0.2361
      5 N          63.4405   86.4485   13.0361 N.ar    1  UNL1       -0.1908
      6 C          64.0579   91.6202   12.3979 C.ar    1  UNL1        0.0990
      7 C          63.4696   90.2983   12.0025 C.ar    1  UNL1        0.0238
      8 C          63.6087   89.1134   12.9118 C.ar    1  UNL1        0.0422
      9 C          64.3362   89.2504   14.2163 C.ar    1  UNL1        0.0238
     10 C          64.9245   90.5723   14.6117 C.ar    1  UNL1        0.0990
     11 N          64.7854   91.7572   13.7024 N.ar    1  UNL1       -0.2423
     12 C          62.6689   83.9268   12.5994 C.3     1  UNL1        0.0793
     13 C          62.4705   83.3671   13.9769 C.3     1  UNL1        0.0093
     14 C          62.5510   81.8865   14.2035 C.3     1  UNL1        0.0005
     15 C          62.8299   80.9657   13.0527 C.3     1  UNL1        0.0000
     16 C          63.0283   81.5254   11.6752 C.3     1  UNL1        0.0005
     17 C          62.9478   83.0060   11.4486 C.3     1  UNL1        0.0093
@<TRIPOS>BOND
     1     6     7   ar
     2     7     8   ar
     3     8     1    1
     4     1     2   ar
     5     2     3   ar
     6     3     4   ar
     7     4    12    1
     8    12    13    1
     9    13    14    1
    10    14    15    1
    11    15    16    1
    12    16    17    1
    13     4     5   ar
    14     8     9   ar
    15     9    10   ar
    16    10    11   ar
    17    11     6   ar
    18     5     1   ar
    19    17    12    1
@<TRIPOS>MOLECULE
*****
 17 19 0 0 0
SMALL
GASTEIGER

@<TRIPOS>ATOM
      1 C          65.2020   91.8277   14.2412 C.ar    1  UNL1        0.2034
      2 N          65.7565   92.9941   15.0041 N.ar    1  UNL1       -0.0560
      3 O          66.2898   93.9852   14.0126 O.2     1  UNL1       -0.3370
      4 C          66.0649   93.4314   12.6368 C.ar    1  UNL1        0.2361
      5 N          65.3926   92.0980   12.7781 N.ar    1  UNL1       -0.1908
      6 C          64.1356   88.0442   14.7874 C.ar    1  UNL1        0.0990
      7 C          64.7694   89.2663   14.1918 C.ar    1  UNL1        0.0238
      8 C          64.5681   90.6055   14.8368 C.ar    1  UNL1        0.0422
      9 C          63.7331   90.7226   16.0773 C.ar    1  UNL1        0.0238
     10 C          63.0993   89.5005   16.6728 C.ar    1  UNL1        0.0990
     11 N          63.3006   88.1613   16.0279 N.ar    1  UNL1       -0.2423
     12 C          66.4455   94.0945   11.3463 C.3     1  UNL1        0.0793
     13 C          66.1574   95.5519   11.1385 C.3     1  UNL1        0.0093
     14 C          66.5379   96.2150    9.8481 C.3     1  UNL1        0.0005
     15 C          67.2066   95.4209    8.7654 C.3     1  UNL1        0.0000
     16 C          67.4947   93.9635    8.9731 C.3     1  UNL1        0.0005
     17 C          67.1141   93.3004   10.2636 C.3     1  UNL1        0.0093
@<TRIPOS>BOND
     1     6     7   ar
     2     7     8   ar
     3     8     1    1
     4     1     2   ar
     5     2     3   ar
     6     3     4   ar
     7     4    12    1
     8    12    13    1
     9    13    14    1
    10    14    15    1
    11    15    16    1
    12    16    17    1
    13     4     5   ar
    14     8     9   ar
    15     9    10   ar
    16    10    11   ar
    17    11     6   ar
    18     5     1   ar
    19    17    12    1
@<TRIPOS>MOLECULE
*****
 17 19 0 0 0
SMALL
GASTEIGER

@<TRIPOS>ATOM
      1 C          63.2797   87.3076   12.8771 C.ar    1  UNL1        0.2034
      2 N          63.8650   87.0810   14.2394 N.ar    1  UNL1       -0.0560
      3 O          63.7840   85.6137   14.5405 O.2     1  UNL1       -0.3370
      4 C          63.1486   84.9335   13.3641 C.ar    1  UNL1        0.2361
      5 N          62.8370   85.9804   12.3361 N.ar    1  UNL1       -0.1908
      6 C          63.6314   91.1827   12.0960 C.ar    1  UNL1        0.0990
      7 C          63.7527   89.8610   12.7948 C.ar    1  UNL1        0.0238
      8 C          63.1584   88.6294   12.1782 C.ar    1  UNL1        0.0422
      9 C          62.4430   88.7195   10.8630 C.ar    1  UNL1        0.0238
     10 C          62.3217   90.0413   10.1643 C.ar    1  UNL1        0.0990
     11 N          62.9160   91.2729   10.7808 N.ar    1  UNL1       -0.2423
     12 C          62.8733   83.4644   13.2380 C.3     1  UNL1        0.0793
     13 C          63.2214   82.7423   11.9702 C.3     1  UNL1        0.0093
     14 C          62.9461   81.2732   11.8441 C.3     1  UNL1        0.0005
     15 C          62.3226   80.5263   12.9858 C.3     1  UNL1        0.0000
     16 C          61.9745   81.2484   14.2536 C.3     1  UNL1        0.0005
     17 C          62.2499   82.7175   14.3797 C.3     1  UNL1        0.0093
@<TRIPOS>BOND
     1     6     7   ar
     2     7     8   ar
     3     8     1    1
     4     1     2   ar
     5     2     3   ar
     6     3     4   ar
     7     4    12    1
     8    12    13    1
     9    13    14    1
    10    14    15    1
    11    15    16    1
    12    16    17    1
    13     4     5   ar
    14     8     9   ar
    15     9    10   ar
    16    10    11   ar
    17    11     6   ar
    18     5     1   ar
    19    17    12    1
@<TRIPOS>MOLECULE
*****
 17 19 0 0 0
SMALL
GASTEIGER

@<TRIPOS>ATOM
      1 C          63.7734   88.3648   13.7506 C.ar    1  UNL1        0.2034
      2 N          63.1284   88.2739   12.3994 N.ar    1  UNL1       -0.0560
      3 O          62.9152   86.8229   12.0843 O.2     1  UNL1       -0.3370
      4 C          63.4285   86.0171   13.2408 C.ar    1  UNL1        0.2361
      5 N          63.9589   86.9701   14.2706 N.ar    1  UNL1       -0.1908
      6 C          63.9387   91.2322   16.4894 C.ar    1  UNL1        0.0990
      7 C          63.5478   89.9684   15.7823 C.ar    1  UNL1        0.0238
      8 C          64.1643   89.6287   14.4577 C.ar    1  UNL1        0.0422
      9 C          65.1717   90.5527   13.8403 C.ar    1  UNL1        0.0238
     10 C          65.5626   91.8165   14.5474 C.ar    1  UNL1        0.0990
     11 N          64.9461   92.1562   15.8720 N.ar    1  UNL1       -0.2423
     12 C          63.4140   84.5211   13.3485 C.3     1  UNL1        0.0793
     13 C          62.5229   83.8500   14.3513 C.3     1  UNL1        0.0093
     14 C          62.5083   82.3540   14.4590 C.3     1  UNL1        0.0005
     15 C          63.3849   81.5290   13.5639 C.3     1  UNL1        0.0000
     16 C          64.2759   82.2001   12.5611 C.3     1  UNL1        0.0005
     17 C          64.2905   83.6961   12.4534 C.3     1  UNL1        0.0093
@<TRIPOS>BOND
     1     6     7   ar
     2     7     8   ar
     3     8     1    1
     4     1     2   ar
     5     2     3   ar
     6     3     4   ar
     7     4    12    1
     8    12    13    1
     9    13    14    1
    10    14    15    1
    11    15    16    1
    12    16    17    1
    13     4     5   ar
    14     8     9   ar
    15     9    10   ar
    16    10    11   ar
    17    11     6   ar
    18     5     1   ar
    19    17    12    1
