@<TRIPOS>MOLECULE
*****
 33 35 0 0 0
SMALL
GASTEIGER

@<TRIPOS>ATOM
      1 N          62.8546   90.2185   11.5564 N.am    1  UNL1       -0.2438
      2 C          63.3571   90.9570   10.3514 C.3     1  UNL1        0.1009
      3 C          64.4414   91.9829   10.4987 C.3     1  UNL1        0.0661
      4 C          65.0232   92.2705   11.8510 C.3     1  UNL1        0.1582
      5 O          64.5207   91.5320   13.0561 O.3     1  UNL1       -0.4375
      6 C          63.4364   90.5060   12.9088 C.2     1  UNL1        0.4051
      7 O          62.9339   89.7676   14.1138 O.2     1  UNL1       -0.2262
      8 C          65.8243   93.2238   11.0147 C.ar    1  UNL1        0.0139
      9 C          66.9766   92.7189   10.1978 C.ar    1  UNL1        0.0014
     10 C          67.7778   93.6722    9.3615 C.ar    1  UNL1        0.0294
     11 C          67.4267   95.1304    9.3422 C.ar    1  UNL1        0.1401
     12 F          68.2279   96.0837    8.5060 F       1  UNL1       -0.2042
     13 C          66.2744   95.6353   10.1592 C.ar    1  UNL1        0.0294
     14 C          65.4732   94.6820   10.9955 C.ar    1  UNL1        0.0014
     15 C          60.3529   89.5450   11.7503 C.3     1  UNL1        0.0265
     16 C          61.7704   89.1925   11.4091 C.3     1  UNL1        0.1011
     17 C          62.1036   87.8139   10.9206 C.ar    1  UNL1       -0.0040
     18 C          62.4704   86.7392   11.9007 C.ar    1  UNL1        0.0004
     19 C          62.8036   85.3608   11.4122 C.ar    1  UNL1        0.0368
     20 C          62.7702   85.0570    9.9436 C.ar    1  UNL1        0.1443
     21 C          62.4034   86.1316    8.9636 C.ar    1  UNL1        0.0368
     22 C          62.0702   87.5101    9.4521 C.ar    1  UNL1        0.0004
     23 O          63.1034   83.6784    9.4552 O.3     1  UNL1       -0.4236
     24 C          63.8197   82.7163   10.3559 C.3     1  UNL1        0.5087
     25 F          63.2758   81.3333   10.5602 F       1  UNL1       -0.1550
     26 F          65.0798   83.1371   11.0524 F       1  UNL1       -0.1550
     27 C          65.8832   92.8891   12.9129 C.3     1  UNL1        0.0541
     28 C          66.7182   92.0178   13.8037 C.3     1  UNL1        0.0887
     29 C          68.1992   92.2380   13.8938 C.2     1  UNL1        0.2195
     30 N          69.1189   91.5584   12.9231 N.am    1  UNL1       -0.3288
     31 O          68.7605   93.1378   14.9546 O.2     1  UNL1       -0.2753
     32 H          68.7504   90.9678   12.2268 H       1  UNL1        0.1449
     33 H          70.0909   91.7029   12.9822 H       1  UNL1        0.1449
@<TRIPOS>BOND
     1    16    15    1
     2    16    17    1
     3    17    18   ar
     4    18    19   ar
     5    19    20   ar
     6    20    23    1
     7    23    24    1
     8    24    25    1
     9    24    26    1
    10    20    21   ar
    11    21    22   ar
    12    16     1    1
    13     1     2    1
    14     2     3    1
    15     3     4    1
    16     4    27    1
    17    27    28    1
    18    28    29    1
    19    29    30   am
    20    29    31    2
    21     4     8    1
    22     8     9   ar
    23     9    10   ar
    24    10    11   ar
    25    11    12    1
    26    11    13   ar
    27    13    14   ar
    28     4     5    1
    29     5     6    1
    30     6     7    2
    31    22    17   ar
    32     6     1   am
    33    14     8   ar
    34    30    32    1
    35    30    33    1
@<TRIPOS>MOLECULE
*****
 33 35 0 0 0
SMALL
GASTEIGER

@<TRIPOS>ATOM
      1 N          62.4126   90.3382   11.4498 N.am    1  UNL1       -0.2438
      2 C          62.8532   91.2238   10.3221 C.3     1  UNL1        0.1009
      3 C          64.1321   91.9997   10.4335 C.3     1  UNL1        0.0661
      4 C          64.9705   91.8900   11.6724 C.3     1  UNL1        0.1582
      5 O          64.5299   91.0044   12.8001 O.3     1  UNL1       -0.4375
      6 C          63.2510   90.2285   12.6888 C.2     1  UNL1        0.4051
      7 O          62.8105   89.3429   13.8164 O.2     1  UNL1       -0.2262
      8 C          65.8026   92.8538   10.8794 C.ar    1  UNL1        0.0139
      9 C          65.4158   94.3016   10.8145 C.ar    1  UNL1        0.0014
     10 C          66.2479   95.2654   10.0215 C.ar    1  UNL1        0.0294
     11 C          67.4667   94.7812    9.2934 C.ar    1  UNL1        0.1401
     12 F          68.2988   95.7450    8.5004 F       1  UNL1       -0.2042
     13 C          67.8534   93.3334    9.3583 C.ar    1  UNL1        0.0294
     14 C          67.0213   92.3696   10.1513 C.ar    1  UNL1        0.0014
     15 C          59.9972   89.8516   12.2736 C.3     1  UNL1        0.0265
     16 C          61.1337   89.5624   11.3384 C.3     1  UNL1        0.1011
     17 C          60.9914   88.4972   10.2919 C.ar    1  UNL1       -0.0040
     18 C          60.1365   88.7421    9.0839 C.ar    1  UNL1        0.0004
     19 C          59.9942   87.6770    8.0374 C.ar    1  UNL1        0.0368
     20 C          60.7067   86.3670    8.1988 C.ar    1  UNL1        0.1443
     21 C          61.5616   86.1221    9.4068 C.ar    1  UNL1        0.0368
     22 C          61.7040   87.1872   10.4533 C.ar    1  UNL1        0.0004
     23 O          60.5644   85.3018    7.1523 O.3     1  UNL1       -0.4236
     24 C          61.7853   84.7176    6.5058 C.3     1  UNL1        0.5087
     25 F          63.1122   84.7953    7.2012 F       1  UNL1       -0.1550
     26 F          61.6795   84.0556    5.1639 F       1  UNL1       -0.1550
     27 C          66.0978   92.1150   12.6360 C.3     1  UNL1        0.0541
     28 C          65.8198   92.2085   14.1070 C.3     1  UNL1        0.0887
     29 C          66.8545   92.7792   15.0311 C.2     1  UNL1        0.2195
     30 N          66.5111   93.0494   16.4660 N.am    1  UNL1       -0.3288
     31 O          68.2324   93.0795   14.5202 O.2     1  UNL1       -0.2753
     32 H          65.6067   92.8522   16.8013 H       1  UNL1        0.1449
     33 H          67.1901   93.4239   17.0726 H       1  UNL1        0.1449
@<TRIPOS>BOND
     1    16    15    1
     2    16    17    1
     3    17    18   ar
     4    18    19   ar
     5    19    20   ar
     6    20    23    1
     7    23    24    1
     8    24    25    1
     9    24    26    1
    10    20    21   ar
    11    21    22   ar
    12    16     1    1
    13     1     2    1
    14     2     3    1
    15     3     4    1
    16     4    27    1
    17    27    28    1
    18    28    29    1
    19    29    30   am
    20    29    31    2
    21     4     8    1
    22     8     9   ar
    23     9    10   ar
    24    10    11   ar
    25    11    12    1
    26    11    13   ar
    27    13    14   ar
    28     4     5    1
    29     5     6    1
    30     6     7    2
    31    22    17   ar
    32     6     1   am
    33    14     8   ar
    34    30    32    1
    35    30    33    1
@<TRIPOS>MOLECULE
*****
 33 35 0 0 0
SMALL
GASTEIGER

@<TRIPOS>ATOM
      1 N          62.8745   90.2638   11.6103 N.am    1  UNL1       -0.2438
      2 C          63.3877   90.9799   10.3963 C.3     1  UNL1        0.1009
      3 C          64.4694   92.0099   10.5344 C.3     1  UNL1        0.0661
      4 C          65.0377   92.3240   11.8866 C.3     1  UNL1        0.1582
      5 O          64.5245   91.6079   13.1007 O.3     1  UNL1       -0.4375
      6 C          63.4429   90.5779   12.9625 C.2     1  UNL1        0.4051
      7 O          62.9296   89.8618   14.1765 O.2     1  UNL1       -0.2262
      8 C          65.8459   93.2623   11.0400 C.ar    1  UNL1        0.0139
      9 C          65.5802   94.7376   11.0928 C.ar    1  UNL1        0.0014
     10 C          66.3884   95.6759   10.2463 C.ar    1  UNL1        0.0294
     11 C          67.4621   95.1387    9.3470 C.ar    1  UNL1        0.1401
     12 F          68.2702   96.0770    8.5005 F       1  UNL1       -0.2042
     13 C          67.7277   93.6634    9.2942 C.ar    1  UNL1        0.0294
     14 C          66.9195   92.7251   10.1408 C.ar    1  UNL1        0.0014
     15 C          60.3589   89.6188   11.6853 C.3     1  UNL1        0.0265
     16 C          61.7929   89.2338   11.4722 C.3     1  UNL1        0.1011
     17 C          62.1453   87.8187   11.1209 C.ar    1  UNL1       -0.0040
     18 C          61.9989   87.3381    9.7075 C.ar    1  UNL1        0.0004
     19 C          62.3513   85.9230    9.3563 C.ar    1  UNL1        0.0368
     20 C          62.8501   84.9886   10.4184 C.ar    1  UNL1        0.1443
     21 C          62.9965   85.4692   11.8317 C.ar    1  UNL1        0.0368
     22 C          62.6441   86.8842   12.1829 C.ar    1  UNL1        0.0004
     23 O          63.2025   83.5735   10.0671 O.3     1  UNL1       -0.4236
     24 C          63.4483   82.5697   11.1543 C.3     1  UNL1        0.5087
     25 F          62.2909   81.8808   11.8146 F       1  UNL1       -0.1550
     26 F          64.8513   82.2550   11.5813 F       1  UNL1       -0.1550
     27 C          65.8868   92.9639   12.9448 C.3     1  UNL1        0.0541
     28 C          66.5590   92.1144   13.9823 C.3     1  UNL1        0.0887
     29 C          68.0557   92.0934   14.0797 C.2     1  UNL1        0.2195
     30 N          68.8762   91.6175   12.9177 N.am    1  UNL1       -0.3288
     31 O          68.7317   92.5483   15.3391 O.2     1  UNL1       -0.2753
     32 H          68.4325   91.3190   12.0911 H       1  UNL1        0.1449
     33 H          69.8586   91.6037   12.9816 H       1  UNL1        0.1449
@<TRIPOS>BOND
     1    16    15    1
     2    16    17    1
     3    17    18   ar
     4    18    19   ar
     5    19    20   ar
     6    20    23    1
     7    23    24    1
     8    24    25    1
     9    24    26    1
    10    20    21   ar
    11    21    22   ar
    12    16     1    1
    13     1     2    1
    14     2     3    1
    15     3     4    1
    16     4    27    1
    17    27    28    1
    18    28    29    1
    19    29    30   am
    20    29    31    2
    21     4     8    1
    22     8     9   ar
    23     9    10   ar
    24    10    11   ar
    25    11    12    1
    26    11    13   ar
    27    13    14   ar
    28     4     5    1
    29     5     6    1
    30     6     7    2
    31    22    17   ar
    32     6     1   am
    33    14     8   ar
    34    30    32    1
    35    30    33    1
@<TRIPOS>MOLECULE
*****
 33 35 0 0 0
SMALL
GASTEIGER

@<TRIPOS>ATOM
      1 N          63.6208   89.5525   12.9774 N.am    1  UNL1       -0.2438
      2 C          62.7946   89.7822   11.7468 C.3     1  UNL1        0.1009
      3 C          62.2146   88.6151   11.0041 C.3     1  UNL1        0.0661
      4 C          62.4608   87.2183   11.4922 C.3     1  UNL1        0.1582
      5 O          63.2871   86.9885   12.7229 O.3     1  UNL1       -0.4375
      6 C          63.8671   88.1556   13.4655 C.2     1  UNL1        0.4051
      7 O          64.6932   87.9259   14.6962 O.2     1  UNL1       -0.2262
      8 C          61.6185   86.9279   10.2854 C.ar    1  UNL1        0.0139
      9 C          62.1582   86.0638    9.1844 C.ar    1  UNL1        0.0014
     10 C          61.3159   85.7734    7.9776 C.ar    1  UNL1        0.0294
     11 C          59.9340   86.3471    7.8720 C.ar    1  UNL1        0.1401
     12 F          59.0917   86.0567    6.6652 F       1  UNL1       -0.2042
     13 C          59.3943   87.2111    8.9730 C.ar    1  UNL1        0.0294
     14 C          60.2366   87.5015   10.1797 C.ar    1  UNL1        0.0014
     15 C          64.0423   90.8151   15.2086 C.3     1  UNL1        0.0265
     16 C          64.2008   90.7196   13.7200 C.3     1  UNL1        0.1011
     17 C          64.9393   91.7911   12.9741 C.ar    1  UNL1       -0.0040
     18 C          65.8805   92.7016   13.7056 C.ar    1  UNL1        0.0004
     19 C          66.6190   93.7731   12.9597 C.ar    1  UNL1        0.0368
     20 C          66.4163   93.9341   11.4822 C.ar    1  UNL1        0.1443
     21 C          65.4751   93.0237   10.7506 C.ar    1  UNL1        0.0368
     22 C          64.7366   91.9522   11.4966 C.ar    1  UNL1        0.0004
     23 O          67.1548   95.0057   10.7362 O.3     1  UNL1       -0.4236
     24 C          67.7447   94.7111    9.3889 C.3     1  UNL1        0.5087
     25 F          67.7405   95.7652    8.3216 F       1  UNL1       -0.1550
     26 F          68.3387   93.3626    9.1088 F       1  UNL1       -0.1550
     27 C          62.4145   85.7205   11.5611 C.3     1  UNL1        0.0541
     28 C          62.9731   85.0072   12.7565 C.3     1  UNL1        0.0887
     29 C          63.3972   83.5728   12.6435 C.2     1  UNL1        0.2195
     30 N          64.7437   83.2312   12.0776 N.am    1  UNL1       -0.3288
     31 O          62.4747   82.4801   13.0963 O.2     1  UNL1       -0.2753
     32 H          65.3490   83.9484   11.7804 H       1  UNL1        0.1449
     33 H          65.0220   82.2898   12.0034 H       1  UNL1        0.1449
@<TRIPOS>BOND
     1    16    15    1
     2    16    17    1
     3    17    18   ar
     4    18    19   ar
     5    19    20   ar
     6    20    23    1
     7    23    24    1
     8    24    25    1
     9    24    26    1
    10    20    21   ar
    11    21    22   ar
    12    16     1    1
    13     1     2    1
    14     2     3    1
    15     3     4    1
    16     4    27    1
    17    27    28    1
    18    28    29    1
    19    29    30   am
    20    29    31    2
    21     4     8    1
    22     8     9   ar
    23     9    10   ar
    24    10    11   ar
    25    11    12    1
    26    11    13   ar
    27    13    14   ar
    28     4     5    1
    29     5     6    1
    30     6     7    2
    31    22    17   ar
    32     6     1   am
    33    14     8   ar
    34    30    32    1
    35    30    33    1
@<TRIPOS>MOLECULE
*****
 33 35 0 0 0
SMALL
GASTEIGER

@<TRIPOS>ATOM
      1 N          63.7357   88.9656   13.5356 N.am    1  UNL1       -0.2438
      2 C          64.2641   87.7392   14.2187 C.3     1  UNL1        0.1009
      3 C          63.8649   86.3781   13.7309 C.3     1  UNL1        0.0661
      4 C          62.9372   86.2433   12.5600 C.3     1  UNL1        0.1582
      5 O          62.4087   87.4697   11.8768 O.3     1  UNL1       -0.4375
      6 C          62.8079   88.8308   12.3646 C.2     1  UNL1        0.4051
      7 O          62.2795   90.0572   11.6814 O.2     1  UNL1       -0.2262
      8 C          63.1718   84.7955   12.8744 C.ar    1  UNL1        0.0139
      9 C          63.8214   83.9032   11.8587 C.ar    1  UNL1        0.0014
     10 C          64.0560   82.4553   12.1731 C.ar    1  UNL1        0.0294
     11 C          63.6409   81.9000   13.5032 C.ar    1  UNL1        0.1401
     12 F          63.8755   80.4521   13.8177 F       1  UNL1       -0.2042
     13 C          62.9913   82.7923   14.5190 C.ar    1  UNL1        0.0294
     14 C          62.7567   84.2401   14.2045 C.ar    1  UNL1        0.0014
     15 C          63.6632   90.8118   15.3621 C.3     1  UNL1        0.0265
     16 C          64.1349   90.3267   14.0234 C.3     1  UNL1        0.1011
     17 C          65.0059   91.2027   13.1724 C.ar    1  UNL1       -0.0040
     18 C          64.5155   91.6768   11.8365 C.ar    1  UNL1        0.0004
     19 C          65.3865   92.5527   10.9856 C.ar    1  UNL1        0.0368
     20 C          66.7478   92.9547   11.4707 C.ar    1  UNL1        0.1443
     21 C          67.2382   92.4806   12.8066 C.ar    1  UNL1        0.0368
     22 C          66.3672   91.6046   13.6575 C.ar    1  UNL1        0.0004
     23 O          67.6188   93.8307   10.6197 O.3     1  UNL1       -0.4236
     24 C          68.0050   93.3897    9.2390 C.3     1  UNL1        0.5087
     25 F          67.6351   94.2296    8.0524 F       1  UNL1       -0.1550
     26 F          68.7612   92.1089    9.0448 F       1  UNL1       -0.1550
     27 C          62.0909   85.6057   11.4982 C.3     1  UNL1        0.0541
     28 C          61.5720   86.4298   10.3574 C.3     1  UNL1        0.0887
     29 C          61.7784   85.9695    8.9447 C.2     1  UNL1        0.2195
     30 N          60.6324   85.9816    7.9770 N.am    1  UNL1       -0.3288
     31 O          63.1308   85.4970    8.5000 O.2     1  UNL1       -0.2753
     32 H          59.7448   86.2917    8.2690 H       1  UNL1        0.1449
     33 H          60.7678   85.6795    7.0498 H       1  UNL1        0.1449
@<TRIPOS>BOND
     1    16    15    1
     2    16    17    1
     3    17    18   ar
     4    18    19   ar
     5    19    20   ar
     6    20    23    1
     7    23    24    1
     8    24    25    1
     9    24    26    1
    10    20    21   ar
    11    21    22   ar
    12    16     1    1
    13     1     2    1
    14     2     3    1
    15     3     4    1
    16     4    27    1
    17    27    28    1
    18    28    29    1
    19    29    30   am
    20    29    31    2
    21     4     8    1
    22     8     9   ar
    23     9    10   ar
    24    10    11   ar
    25    11    12    1
    26    11    13   ar
    27    13    14   ar
    28     4     5    1
    29     5     6    1
    30     6     7    2
    31    22    17   ar
    32     6     1   am
    33    14     8   ar
    34    30    32    1
    35    30    33    1
@<TRIPOS>MOLECULE
*****
 33 35 0 0 0
SMALL
GASTEIGER

@<TRIPOS>ATOM
      1 N          62.7499   88.2707   12.1988 N.am    1  UNL1       -0.2438
      2 C          62.4098   87.2391   11.1644 C.3     1  UNL1        0.1009
      3 C          62.7925   85.8050   11.3812 C.3     1  UNL1        0.0661
      4 C          63.5152   85.4026   12.6325 C.3     1  UNL1        0.1582
      5 O          63.8553   86.4343   13.6670 O.3     1  UNL1       -0.4375
      6 C          63.4727   87.8683   13.4501 C.2     1  UNL1        0.4051
      7 O          63.8128   88.9000   14.4845 O.2     1  UNL1       -0.2262
      8 C          63.4139   84.0705   11.9503 C.ar    1  UNL1        0.0139
      9 C          64.1927   83.8094   10.6952 C.ar    1  UNL1        0.0014
     10 C          64.0914   82.4773   10.0131 C.ar    1  UNL1        0.0294
     11 C          63.2112   81.4064   10.5861 C.ar    1  UNL1        0.1401
     12 F          63.1099   80.0742    9.9040 F       1  UNL1       -0.2042
     13 C          62.4324   81.6674   11.8413 C.ar    1  UNL1        0.0294
     14 C          62.5338   82.9995   12.5234 C.ar    1  UNL1        0.0014
     15 C          60.9209   90.1018   11.9718 C.3     1  UNL1        0.0265
     16 C          62.3673   89.7048   11.9819 C.3     1  UNL1        0.1011
     17 C          63.4312   90.7419   11.7751 C.ar    1  UNL1       -0.0040
     18 C          63.6323   91.3500   10.4188 C.ar    1  UNL1        0.0004
     19 C          64.6961   92.3870   10.2121 C.ar    1  UNL1        0.0368
     20 C          65.5589   92.8159   11.3617 C.ar    1  UNL1        0.1443
     21 C          65.3578   92.2078   12.7180 C.ar    1  UNL1        0.0368
     22 C          64.2940   91.1708   12.9247 C.ar    1  UNL1        0.0004
     23 O          66.6228   93.8530   11.1549 O.3     1  UNL1       -0.4236
     24 C          67.4965   93.7987    9.9369 C.3     1  UNL1        0.5087
     25 F          67.9850   95.0694    9.3070 F       1  UNL1       -0.1550
     26 F          67.8816   92.4737    9.3485 F       1  UNL1       -0.1550
     27 C          64.2028   84.5375   13.6469 C.3     1  UNL1        0.0541
     28 C          64.0647   84.8419   15.1091 C.3     1  UNL1        0.0887
     29 C          62.8389   84.4031   15.8541 C.2     1  UNL1        0.2195
     30 N          62.3727   82.9806   15.7592 N.am    1  UNL1       -0.3288
     31 O          62.0793   85.3869   16.6939 O.2     1  UNL1       -0.2753
     32 H          62.8713   82.3349   15.2080 H       1  UNL1        0.1449
     33 H          61.5682   82.6926   16.2481 H       1  UNL1        0.1449
@<TRIPOS>BOND
     1    16    15    1
     2    16    17    1
     3    17    18   ar
     4    18    19   ar
     5    19    20   ar
     6    20    23    1
     7    23    24    1
     8    24    25    1
     9    24    26    1
    10    20    21   ar
    11    21    22   ar
    12    16     1    1
    13     1     2    1
    14     2     3    1
    15     3     4    1
    16     4    27    1
    17    27    28    1
    18    28    29    1
    19    29    30   am
    20    29    31    2
    21     4     8    1
    22     8     9   ar
    23     9    10   ar
    24    10    11   ar
    25    11    12    1
    26    11    13   ar
    27    13    14   ar
    28     4     5    1
    29     5     6    1
    30     6     7    2
    31    22    17   ar
    32     6     1   am
    33    14     8   ar
    34    30    32    1
    35    30    33    1
@<TRIPOS>MOLECULE
*****
 33 35 0 0 0
SMALL
GASTEIGER

@<TRIPOS>ATOM
      1 N          62.2771   88.8194   11.1662 N.am    1  UNL1       -0.2438
      2 C          62.8564   87.8709   12.1736 C.3     1  UNL1        0.1009
      3 C          62.9261   86.4038   11.8689 C.3     1  UNL1        0.0661
      4 C          62.4165   85.8852   10.5568 C.3     1  UNL1        0.1582
      5 O          61.8372   86.8338    9.5494 O.3     1  UNL1       -0.4375
      6 C          61.7676   88.3009    9.8541 C.2     1  UNL1        0.4051
      7 O          61.1883   89.2494    8.8468 O.2     1  UNL1       -0.2262
      8 C          62.8740   84.6018   11.1842 C.ar    1  UNL1        0.0139
      9 C          63.6988   83.6317   10.3914 C.ar    1  UNL1        0.0014
     10 C          64.1563   82.3483   11.0187 C.ar    1  UNL1        0.0294
     11 C          63.7888   82.0350   12.4389 C.ar    1  UNL1        0.1401
     12 F          64.2463   80.7515   13.0662 F       1  UNL1       -0.2042
     13 C          62.9640   83.0051   13.2317 C.ar    1  UNL1        0.0294
     14 C          62.5066   84.2885   12.6044 C.ar    1  UNL1        0.0014
     15 C          60.9073   91.0210   11.3292 C.3     1  UNL1        0.0265
     16 C          62.2074   90.2865   11.4709 C.3     1  UNL1        0.1011
     17 C          63.4380   91.0190   11.9174 C.ar    1  UNL1       -0.0040
     18 C          63.8767   90.9449   13.3498 C.ar    1  UNL1        0.0004
     19 C          65.1071   91.6774   13.7962 C.ar    1  UNL1        0.0368
     20 C          65.8989   92.4841   12.8101 C.ar    1  UNL1        0.1443
     21 C          65.4602   92.5583   11.3777 C.ar    1  UNL1        0.0368
     22 C          64.2297   91.8257   10.9313 C.ar    1  UNL1        0.0004
     23 O          67.1294   93.2167   13.2566 O.3     1  UNL1       -0.4236
     24 C          67.7053   92.9561   14.6169 C.3     1  UNL1        0.5087
     25 F          67.9133   94.0926   15.5736 F       1  UNL1       -0.1550
     26 F          68.0732   91.5591   15.0205 F       1  UNL1       -0.1550
     27 C          62.0658   84.9209    9.4626 C.3     1  UNL1        0.0541
     28 C          62.1304   85.3575    8.0291 C.3     1  UNL1        0.0887
     29 C          60.9510   85.1457    7.1267 C.2     1  UNL1        0.2195
     30 N          59.6506   85.8343    7.4181 N.am    1  UNL1       -0.3288
     31 O          61.0720   84.2455    5.9330 O.2     1  UNL1       -0.2753
     32 H          59.5713   86.4252    8.2015 H       1  UNL1        0.1449
     33 H          58.8765   85.6954    6.8259 H       1  UNL1        0.1449
@<TRIPOS>BOND
     1    16    15    1
     2    16    17    1
     3    17    18   ar
     4    18    19   ar
     5    19    20   ar
     6    20    23    1
     7    23    24    1
     8    24    25    1
     9    24    26    1
    10    20    21   ar
    11    21    22   ar
    12    16     1    1
    13     1     2    1
    14     2     3    1
    15     3     4    1
    16     4    27    1
    17    27    28    1
    18    28    29    1
    19    29    30   am
    20    29    31    2
    21     4     8    1
    22     8     9   ar
    23     9    10   ar
    24    10    11   ar
    25    11    12    1
    26    11    13   ar
    27    13    14   ar
    28     4     5    1
    29     5     6    1
    30     6     7    2
    31    22    17   ar
    32     6     1   am
    33    14     8   ar
    34    30    32    1
    35    30    33    1
@<TRIPOS>MOLECULE
*****
 33 35 0 0 0
SMALL
GASTEIGER

@<TRIPOS>ATOM
      1 N          62.0799   88.6851   11.0937 N.am    1  UNL1       -0.2438
      2 C          62.6628   87.7648   12.1247 C.3     1  UNL1        0.1009
      3 C          62.8346   86.3067   11.8172 C.3     1  UNL1        0.0661
      4 C          62.4234   85.7690   10.4787 C.3     1  UNL1        0.1582
      5 O          61.8404   86.6894    9.4475 O.3     1  UNL1       -0.4375
      6 C          61.6687   88.1474    9.7550 C.2     1  UNL1        0.4051
      7 O          61.0858   89.0678    8.7240 O.2     1  UNL1       -0.2262
      8 C          62.9239   84.5100   11.1226 C.ar    1  UNL1        0.0139
      9 C          62.5486   84.1920   12.5396 C.ar    1  UNL1        0.0014
     10 C          63.0491   82.9330   13.1835 C.ar    1  UNL1        0.0294
     11 C          63.9249   81.9922   12.4103 C.ar    1  UNL1        0.1401
     12 F          64.4254   80.7332   13.0541 F       1  UNL1       -0.2042
     13 C          64.3002   82.3103   10.9932 C.ar    1  UNL1        0.0294
     14 C          63.7997   83.5692   10.3494 C.ar    1  UNL1        0.0014
     15 C          60.5335   90.7132   11.5890 C.3     1  UNL1        0.0265
     16 C          61.9081   90.1432   11.4011 C.3     1  UNL1        0.1011
     17 C          63.1111   91.0312   11.5208 C.ar    1  UNL1       -0.0040
     18 C          63.6281   91.7601   10.3160 C.ar    1  UNL1        0.0004
     19 C          64.8311   92.6480   10.4357 C.ar    1  UNL1        0.0368
     20 C          65.5170   92.8072   11.7602 C.ar    1  UNL1        0.1443
     21 C          65.0000   92.0784   12.9649 C.ar    1  UNL1        0.0368
     22 C          63.7971   91.1904   12.8452 C.ar    1  UNL1        0.0004
     23 O          66.7200   93.6953   11.8798 O.3     1  UNL1       -0.4236
     24 C          66.7271   95.0416   11.2186 C.3     1  UNL1        0.5087
     25 F          65.9841   96.1867   11.8407 F       1  UNL1       -0.1550
     26 F          67.4772   95.2429    9.9353 F       1  UNL1       -0.1550
     27 C          62.1860   84.7940    9.3637 C.3     1  UNL1        0.0541
     28 C          62.2042   85.2644    7.9395 C.3     1  UNL1        0.0887
     29 C          60.9982   85.0679    7.0693 C.2     1  UNL1        0.2195
     30 N          59.7140   85.7699    7.3978 N.am    1  UNL1       -0.3288
     31 O          61.0766   84.1695    5.8708 O.2     1  UNL1       -0.2753
     32 H          59.6626   86.3596    8.1845 H       1  UNL1        0.1449
     33 H          58.9225   85.6410    6.8268 H       1  UNL1        0.1449
@<TRIPOS>BOND
     1    16    15    1
     2    16    17    1
     3    17    18   ar
     4    18    19   ar
     5    19    20   ar
     6    20    23    1
     7    23    24    1
     8    24    25    1
     9    24    26    1
    10    20    21   ar
    11    21    22   ar
    12    16     1    1
    13     1     2    1
    14     2     3    1
    15     3     4    1
    16     4    27    1
    17    27    28    1
    18    28    29    1
    19    29    30   am
    20    29    31    2
    21     4     8    1
    22     8     9   ar
    23     9    10   ar
    24    10    11   ar
    25    11    12    1
    26    11    13   ar
    27    13    14   ar
    28     4     5    1
    29     5     6    1
    30     6     7    2
    31    22    17   ar
    32     6     1   am
    33    14     8   ar
    34    30    32    1
    35    30    33    1
@<TRIPOS>MOLECULE
*****
 33 35 0 0 0
SMALL
GASTEIGER

@<TRIPOS>ATOM
      1 N          62.9459   87.5828   12.2067 N.am    1  UNL1       -0.2438
      2 C          62.4297   86.2810   11.6694 C.3     1  UNL1        0.1009
      3 C          62.6759   85.0080   12.4235 C.3     1  UNL1        0.0661
      4 C          63.4383   85.0367   13.7150 C.3     1  UNL1        0.1582
      5 O          63.9545   86.3386   14.2524 O.3     1  UNL1       -0.4375
      6 C          63.7083   87.6116   13.4983 C.2     1  UNL1        0.4051
      7 O          64.2245   88.9135   14.0356 O.2     1  UNL1       -0.2262
      8 C          63.1523   83.5676   13.6140 C.ar    1  UNL1        0.0139
      9 C          63.8404   82.7398   12.5694 C.ar    1  UNL1        0.0014
     10 C          63.5545   81.2707   12.4684 C.ar    1  UNL1        0.0294
     11 C          62.5805   80.6296   13.4120 C.ar    1  UNL1        0.1401
     12 F          62.2946   79.1606   13.3109 F       1  UNL1       -0.2042
     13 C          61.8925   81.4575   14.4566 C.ar    1  UNL1        0.0294
     14 C          62.1784   82.9266   14.5576 C.ar    1  UNL1        0.0014
     15 C          63.4090   90.1149   11.8547 C.3     1  UNL1        0.0265
     16 C          62.6997   88.8559   11.4526 C.3     1  UNL1        0.1011
     17 C          61.7441   88.8699   10.2964 C.ar    1  UNL1       -0.0040
     18 C          61.6062   87.6585    9.4227 C.ar    1  UNL1        0.0004
     19 C          60.6507   87.6725    8.2665 C.ar    1  UNL1        0.0368
     20 C          59.8331   88.8980    7.9841 C.ar    1  UNL1        0.1443
     21 C          59.9710   90.1094    8.8578 C.ar    1  UNL1        0.0368
     22 C          60.9265   90.0954   10.0139 C.ar    1  UNL1        0.0004
     23 O          58.8775   88.9120    6.8279 O.3     1  UNL1       -0.4236
     24 C          58.8997   90.0494    5.8503 C.3     1  UNL1        0.5087
     25 F          60.2067   90.5453    5.3062 F       1  UNL1       -0.1550
     26 F          57.6150   90.6909    5.4167 F       1  UNL1       -0.1550
     27 C          64.1014   84.5553   14.9714 C.3     1  UNL1        0.0541
     28 C          64.2120   85.4666   16.1576 C.3     1  UNL1        0.0887
     29 C          63.0012   86.1975   16.6575 C.2     1  UNL1        0.2195
     30 N          63.0613   87.6784   16.8882 N.am    1  UNL1       -0.3288
     31 O          61.7305   85.4474   16.9267 O.2     1  UNL1       -0.2753
     32 H          63.8954   88.1707   16.7115 H       1  UNL1        0.1449
     33 H          62.2667   88.1582   17.2162 H       1  UNL1        0.1449
@<TRIPOS>BOND
     1    16    15    1
     2    16    17    1
     3    17    18   ar
     4    18    19   ar
     5    19    20   ar
     6    20    23    1
     7    23    24    1
     8    24    25    1
     9    24    26    1
    10    20    21   ar
    11    21    22   ar
    12    16     1    1
    13     1     2    1
    14     2     3    1
    15     3     4    1
    16     4    27    1
    17    27    28    1
    18    28    29    1
    19    29    30   am
    20    29    31    2
    21     4     8    1
    22     8     9   ar
    23     9    10   ar
    24    10    11   ar
    25    11    12    1
    26    11    13   ar
    27    13    14   ar
    28     4     5    1
    29     5     6    1
    30     6     7    2
    31    22    17   ar
    32     6     1   am
    33    14     8   ar
    34    30    32    1
    35    30    33    1
