@<TRIPOS>MOLECULE
*****
 90 98 0 0 0
SMALL
GASTEIGER

@<TRIPOS>ATOM
      1 C          61.1624   86.2347    7.6969 C.3     1  UNL1        0.0196
      2 C          60.9170   86.4599    9.1595 C.3     1  UNL1        0.0017
      3 C          61.7436   85.7340   10.1792 C.3     1  UNL1        0.0017
      4 C          62.8157   84.7829    9.7364 C.3     1  UNL1        0.0196
      5 C          63.0612   84.5577    8.2739 C.3     1  UNL1        0.0017
      6 C          62.2345   85.2836    7.2541 C.3     1  UNL1        0.0017
      7 C          63.6422   84.0571   10.7561 C.3     1  UNL1        0.0881
      8 N          63.0307   82.9568   11.5719 N.pl3   1  UNL1       -0.3180
      9 H          62.6263   82.1787   11.1244 H       1  UNL1        0.1482
     10 C          63.0355   83.0419   13.0694 C.ar    1  UNL1        0.1317
     11 N          62.8134   81.8071   13.8915 N.ar    1  UNL1       -0.2092
     12 C          62.8181   81.8922   15.3891 C.ar    1  UNL1        0.2000
     13 N          63.0449   83.2122   16.0646 N.ar    1  UNL1       -0.2238
     14 C          63.2670   84.4471   15.2424 C.ar    1  UNL1        0.0888
     15 C          63.4939   85.7670   15.9179 C.ar    1  UNL1        0.0574
     16 C          63.7160   87.0018   15.0958 C.ar    1  UNL1        0.1535
     17 C          63.7112   86.9167   13.5982 C.ar    1  UNL1        0.0850
     18 C          63.4844   85.5967   12.9228 C.ar    1  UNL1        0.0220
     19 C          63.2623   84.3619   13.7449 C.ar    1  UNL1        0.0505
     20 N          63.9333   88.1515   12.7760 N.am    1  UNL1       -0.2802
     21 C          62.7707   88.8334   12.1178 C.2     1  UNL1        0.2443
     22 O          61.3860   88.2805   12.2817 O.2     1  UNL1       -0.2730
     23 H          64.8422   88.5144   12.6685 H       1  UNL1        0.1550
     24 C          62.9929   90.0682   11.2957 C.3     1  UNL1        0.1521
     25 C          62.3251   90.3914    9.9919 C.3     1  UNL1        0.0310
     26 C          62.8413   91.7195    9.5233 C.3     1  UNL1        0.0237
     27 C          63.8281   92.2173   10.5375 C.3     1  UNL1        0.0939
     28 N          63.9218   91.1967   11.6329 N.am    1  UNL1       -0.2717
     29 C          64.7916   91.2885   12.8515 C.2     1  UNL1        0.2438
     30 O          64.7795   90.1842   13.8665 O.2     1  UNL1       -0.2731
     31 C          65.6735   92.4846   13.0550 C.3     1  UNL1        0.1487
     32 C          66.7311   92.4644   14.1185 C.3     1  UNL1        0.0269
     33 C          66.3715   92.7815   15.5399 C.3     1  UNL1        0.0021
     34 C          67.4290   92.7613   16.6035 C.3     1  UNL1        0.0001
     35 C          68.8461   92.4240   16.2458 C.3     1  UNL1        0.0000
     36 C          69.2057   92.1070   14.8245 C.3     1  UNL1        0.0001
     37 C          68.1482   92.1272   13.7609 C.3     1  UNL1        0.0021
     38 N          65.4980   93.7010   12.1949 N.am    1  UNL1       -0.2973
     39 C          66.4892   94.0017   11.1100 C.2     1  UNL1        0.2370
     40 O          67.6560   93.0863   10.8852 O.2     1  UNL1       -0.2737
     41 H          64.7322   94.3018   12.3424 H       1  UNL1        0.1499
     42 C          66.3137   95.2181   10.2499 C.3     1  UNL1        0.1316
     43 C          66.1223   96.5639   10.8840 C.3     1  UNL1        0.0270
     44 N          66.3295   95.0885    8.7556 N.3     1  UNL1       -0.2902
     45 C          66.3713   96.3175    7.8966 C.3     1  UNL1        0.0862
     46 H          65.4868   94.5760    8.4955 H       1  UNL1        0.1237
     47 O          63.9428   88.3218   15.7712 O.3     1  UNL1       -0.4701
     48 C          62.8368   88.9625   16.5562 C.3     1  UNL1        0.2525
     49 C          60.3358   86.9605    6.6772 C.3     1  UNL1        0.0881
     50 N          60.3840   88.4578    6.6007 N.pl3   1  UNL1       -0.3180
     51 H          61.2378   88.9302    6.7314 H       1  UNL1        0.1482
     52 C          60.4838   91.9563    3.7722 C.ar    1  UNL1        0.0850
     53 C          60.4505   90.7901    4.7150 C.ar    1  UNL1        0.0220
     54 C          59.1644   90.4015    5.3822 C.ar    1  UNL1        0.0505
     55 C          59.1312   89.2353    6.3250 C.ar    1  UNL1        0.1317
     56 N          57.8452   88.8467    6.9922 N.ar    1  UNL1       -0.2092
     57 C          56.5924   89.6242    6.7165 C.ar    1  UNL1        0.2000
     58 N          56.6257   90.7904    5.7736 N.ar    1  UNL1       -0.2238
     59 C          57.9117   91.1790    5.1065 C.ar    1  UNL1        0.0888
     60 C          57.9450   92.3452    4.1636 C.ar    1  UNL1        0.0574
     61 C          59.2310   92.7338    3.4965 C.ar    1  UNL1        0.1535
     62 C          61.8285   92.4837    1.6126 C.2     1  UNL1        0.2443
     63 O          60.6011   92.2338    0.7874 O.2     1  UNL1       -0.2730
     64 N          61.7698   92.3449    3.1051 N.am    1  UNL1       -0.2802
     65 H          62.5754   92.5089    3.6467 H       1  UNL1        0.1550
     66 C          62.1146   94.1759   -1.1629 C.2     1  UNL1        0.2438
     67 O          60.6962   93.9369   -0.7376 O.2     1  UNL1       -0.2731
     68 N          63.2461   93.6501   -0.3303 N.am    1  UNL1       -0.2717
     69 C          64.7077   93.8099   -0.6272 C.3     1  UNL1        0.0939
     70 C          65.4796   93.1308    0.4652 C.3     1  UNL1        0.0237
     71 C          64.4949   92.5513    1.4372 C.3     1  UNL1        0.0310
     72 C          63.1146   92.8723    0.9455 C.3     1  UNL1        0.1521
     73 C          62.4016   94.9406   -2.4211 C.3     1  UNL1        0.1487
     74 C          61.5074   94.7830   -3.6151 C.3     1  UNL1        0.0269
     75 C          62.0769   94.8933   -4.9984 C.3     1  UNL1        0.0021
     76 C          61.1827   94.7358   -6.1923 C.3     1  UNL1        0.0001
     77 C          59.7190   94.4679   -6.0030 C.3     1  UNL1        0.0000
     78 C          59.1495   94.3576   -4.6197 C.3     1  UNL1        0.0001
     79 C          60.0437   94.5151   -3.4258 C.3     1  UNL1        0.0021
     80 C          64.8054   95.4633   -3.2569 C.2     1  UNL1        0.2370
     81 O          64.8468   94.1413   -3.9646 O.2     1  UNL1       -0.2737
     82 N          63.5828   95.8629   -2.4852 N.am    1  UNL1       -0.2973
     83 H          63.5556   96.7306   -2.0208 H       1  UNL1        0.1499
     84 C          65.9865   96.3856   -3.3211 C.3     1  UNL1        0.1316
     85 C          66.6532   96.8396   -2.0563 C.3     1  UNL1        0.0270
     86 C          65.9869   96.2329   -5.9146 C.3     1  UNL1        0.0862
     87 N          66.5012   96.8540   -4.6499 N.3     1  UNL1       -0.2902
     88 H          66.2991   97.8521   -4.7087 H       1  UNL1        0.1237
     89 O          59.2643   93.9000    2.5537 O.3     1  UNL1       -0.4701
     90 C          59.9747   95.1615    2.9458 C.3     1  UNL1        0.2525
@<TRIPOS>BOND
     1    86    87    1
     2    87    84    1
     3    84    85    1
     4    84    80    1
     5    80    81    2
     6    80    82   am
     7    73    82    1
     8    73    66    1
     9    66    67    2
    10    66    68   am
    11    68    69    1
    12    69    70    1
    13    70    71    1
    14    71    72    1
    15    72    62    1
    16    62    63    2
    17    62    64   am
    18    64    52    1
    19    52    53   ar
    20    53    54   ar
    21    54    55   ar
    22    55    50    1
    23    50    49    1
    24     1    49    1
    25     1     2    1
    26     2     3    1
    27     3     4    1
    28     4     7    1
    29     7     8    1
    30     8    10    1
    31    10    11   ar
    32    11    12   ar
    33    12    13   ar
    34    13    14   ar
    35    14    15   ar
    36    15    16   ar
    37    16    47    1
    38    47    48    1
    39    16    17   ar
    40    17    20    1
    41    20    21   am
    42    21    22    2
    43    24    21    1
    44    24    25    1
    45    25    26    1
    46    26    27    1
    47    27    28    1
    48    28    29   am
    49    29    30    2
    50    29    31    1
    51    31    38    1
    52    38    39   am
    53    39    40    2
    54    39    42    1
    55    42    43    1
    56    42    44    1
    57    44    45    1
    58    31    32    1
    59    32    33    1
    60    33    34    1
    61    34    35    1
    62    35    36    1
    63    36    37    1
    64    17    18   ar
    65    18    19   ar
    66     4     5    1
    67     5     6    1
    68    55    56   ar
    69    56    57   ar
    70    57    58   ar
    71    58    59   ar
    72    59    60   ar
    73    60    61   ar
    74    61    89    1
    75    89    90    1
    76    73    74    1
    77    74    75    1
    78    75    76    1
    79    76    77    1
    80    77    78    1
    81    78    79    1
    82    72    68    1
    83    61    52   ar
    84    79    74    1
    85    59    54   ar
    86     6     1    1
    87    19    10   ar
    88    19    14   ar
    89    28    24    1
    90    37    32    1
    91    87    88    1
    92    82    83    1
    93    64    65    1
    94    50    51    1
    95     8     9    1
    96    20    23    1
    97    38    41    1
    98    44    46    1
@<TRIPOS>MOLECULE
*****
 90 98 0 0 0
SMALL
GASTEIGER

@<TRIPOS>ATOM
      1 C          62.9610   84.7574   10.2074 C.3     1  UNL1        0.0196
      2 C          63.3297   84.5224    8.7724 C.3     1  UNL1        0.0017
      3 C          62.6081   85.2582    7.6825 C.3     1  UNL1        0.0017
      4 C          61.5179   86.2290    8.0275 C.3     1  UNL1        0.0196
      5 C          61.1492   86.4640    9.4623 C.3     1  UNL1        0.0017
      6 C          61.8708   85.7282   10.5523 C.3     1  UNL1        0.0017
      7 C          60.7963   86.9648    6.9376 C.3     1  UNL1        0.0881
      8 N          60.6643   88.4577    7.0006 N.pl3   1  UNL1       -0.3180
      9 H          61.4374   89.0097    7.2593 H       1  UNL1        0.1482
     10 C          59.3546   89.1095    6.6694 C.ar    1  UNL1        0.1317
     11 N          58.0917   88.6285    7.3205 N.ar    1  UNL1       -0.2092
     12 C          56.7819   89.2803    6.9893 C.ar    1  UNL1        0.2000
     13 N          56.7350   90.4130    6.0071 N.ar    1  UNL1       -0.2238
     14 C          57.9979   90.8940    5.3561 C.ar    1  UNL1        0.0888
     15 C          57.9510   92.0267    4.3739 C.ar    1  UNL1        0.0574
     16 C          59.2138   92.5077    3.7229 C.ar    1  UNL1        0.1535
     17 C          60.5236   91.8559    4.0540 C.ar    1  UNL1        0.0850
     18 C          60.5705   90.7232    5.0362 C.ar    1  UNL1        0.0220
     19 C          59.3077   90.2422    5.6872 C.ar    1  UNL1        0.0505
     20 N          61.7865   92.3369    3.4030 N.am    1  UNL1       -0.2802
     21 C          61.9069   92.3360    1.9079 C.2     1  UNL1        0.2443
     22 O          60.7645   91.8541    1.0637 O.2     1  UNL1       -0.2730
     23 H          62.5363   92.6531    3.9570 H       1  UNL1        0.1550
     24 C          63.1698   92.8169    1.2569 C.3     1  UNL1        0.1521
     25 C          64.5642   92.5841    1.7584 C.3     1  UNL1        0.0310
     26 C          65.5163   93.2384    0.8016 C.3     1  UNL1        0.0237
     27 C          64.7103   93.8757   -0.2913 C.3     1  UNL1        0.0939
     28 N          63.2601   93.6152   -0.0098 N.am    1  UNL1       -0.2717
     29 C          62.1033   94.0726   -0.8480 C.2     1  UNL1        0.2438
     30 O          60.7004   93.7347   -0.4385 O.2     1  UNL1       -0.2731
     31 C          62.3494   94.8680   -2.0957 C.3     1  UNL1        0.1487
     32 C          61.4215   94.7329   -3.2665 C.3     1  UNL1        0.0269
     33 C          60.1681   93.9186   -3.1401 C.3     1  UNL1        0.0021
     34 C          59.2402   93.7836   -4.3109 C.3     1  UNL1        0.0001
     35 C          59.5656   94.4627   -5.6081 C.3     1  UNL1        0.0000
     36 C          60.8190   95.2770   -5.7345 C.3     1  UNL1        0.0001
     37 C          61.7469   95.4121   -4.5637 C.3     1  UNL1        0.0021
     38 N          63.5234   95.7985   -2.1727 N.am    1  UNL1       -0.2973
     39 C          64.7036   95.4475   -3.0293 C.2     1  UNL1        0.2370
     40 O          64.7098   94.1661   -3.8091 O.2     1  UNL1       -0.2737
     41 H          63.5194   96.6395   -1.6609 H       1  UNL1        0.1499
     42 C          65.8777   96.3779   -3.1063 C.3     1  UNL1        0.1316
     43 C          66.5582   96.8325   -1.8492 C.3     1  UNL1        0.0270
     44 N          66.3713   96.8538   -4.4405 N.3     1  UNL1       -0.2902
     45 C          66.4179   95.9079   -5.6038 C.3     1  UNL1        0.0862
     46 H          67.3226   97.1931   -4.2985 H       1  UNL1        0.1237
     47 O          59.1669   93.6405    2.7407 O.3     1  UNL1       -0.4701
     48 C          60.1185   94.7918    2.8777 C.3     1  UNL1        0.2525
     49 C          63.6826   84.0216   11.2972 C.3     1  UNL1        0.0881
     50 N          62.9205   83.1292   12.2315 N.pl3   1  UNL1       -0.3180
     51 H          62.4089   82.3668   11.8762 H       1  UNL1        0.1482
     52 C          63.6798   87.2968   13.7495 C.ar    1  UNL1        0.0850
     53 C          63.4267   85.9076   13.2435 C.ar    1  UNL1        0.0220
     54 C          63.1912   84.7875   14.2131 C.ar    1  UNL1        0.0505
     55 C          62.9381   83.3983   13.7071 C.ar    1  UNL1        0.1317
     56 N          62.7025   82.2783   14.6766 N.ar    1  UNL1       -0.2092
     57 C          62.7201   82.5475   16.1521 C.ar    1  UNL1        0.2000
     58 N          62.9732   83.9367   16.6581 N.ar    1  UNL1       -0.2238
     59 C          63.2087   85.0567   15.6886 C.ar    1  UNL1        0.0888
     60 C          63.4618   86.4459   16.1946 C.ar    1  UNL1        0.0574
     61 C          63.6974   87.5659   15.2251 C.ar    1  UNL1        0.1535
     62 C          62.7508   89.1571   12.1919 C.2     1  UNL1        0.2443
     63 O          61.3508   88.7774   12.5734 O.2     1  UNL1       -0.2730
     64 N          63.9154   88.4168   12.7800 N.am    1  UNL1       -0.2802
     65 H          64.8343   88.6661   12.5296 H       1  UNL1        0.1550
     66 C          64.9912   91.5113   12.4883 C.2     1  UNL1        0.2438
     67 O          64.9898   90.5247   13.6181 O.2     1  UNL1       -0.2731
     68 N          64.0162   91.3593   11.3586 N.am    1  UNL1       -0.2717
     69 C          63.8998   92.2627   10.1668 C.3     1  UNL1        0.0939
     70 C          62.7980   91.7389    9.2939 C.3     1  UNL1        0.0237
     71 C          62.2335   90.5117    9.9464 C.3     1  UNL1        0.0310
     72 C          62.9864   90.2772   11.2223 C.3     1  UNL1        0.1521
     73 C          65.9676   92.6501   12.4882 C.3     1  UNL1        0.1487
     74 C          66.5191   93.1652   11.1919 C.3     1  UNL1        0.0269
     75 C          67.4457   92.3107   10.3787 C.3     1  UNL1        0.0021
     76 C          67.9972   92.8258    9.0824 C.3     1  UNL1        0.0001
     77 C          67.6221   94.1954    8.5993 C.3     1  UNL1        0.0000
     78 C          66.6955   95.0499    9.4124 C.3     1  UNL1        0.0001
     79 C          66.1440   94.5348   10.7087 C.3     1  UNL1        0.0021
     80 C          67.6187   92.7753   14.4903 C.2     1  UNL1        0.2370
     81 O          68.4200   91.6532   13.8996 O.2     1  UNL1       -0.2737
     82 N          66.3925   93.2737   13.7846 N.am    1  UNL1       -0.2973
     83 H          65.8666   94.0101   14.1723 H       1  UNL1        0.1499
     84 C          68.0436   93.3989   15.7866 C.3     1  UNL1        0.1316
     85 C          69.3490   94.1327   15.8736 C.3     1  UNL1        0.0270
     86 C          65.8931   92.4936   16.9293 C.3     1  UNL1        0.0862
     87 N          67.1632   93.2888   16.9960 N.3     1  UNL1       -0.2902
     88 H          67.7304   92.8760   17.7365 H       1  UNL1        0.1237
     89 O          63.9504   88.9552   15.7311 O.3     1  UNL1       -0.4701
     90 C          62.7999   89.8872   15.9709 C.3     1  UNL1        0.2525
@<TRIPOS>BOND
     1    86    87    1
     2    87    84    1
     3    84    85    1
     4    84    80    1
     5    80    81    2
     6    80    82   am
     7    73    82    1
     8    73    66    1
     9    66    67    2
    10    66    68   am
    11    68    69    1
    12    69    70    1
    13    70    71    1
    14    71    72    1
    15    72    62    1
    16    62    63    2
    17    62    64   am
    18    64    52    1
    19    52    53   ar
    20    53    54   ar
    21    54    55   ar
    22    55    50    1
    23    50    49    1
    24     1    49    1
    25     1     2    1
    26     2     3    1
    27     3     4    1
    28     4     7    1
    29     7     8    1
    30     8    10    1
    31    10    11   ar
    32    11    12   ar
    33    12    13   ar
    34    13    14   ar
    35    14    15   ar
    36    15    16   ar
    37    16    47    1
    38    47    48    1
    39    16    17   ar
    40    17    20    1
    41    20    21   am
    42    21    22    2
    43    24    21    1
    44    24    25    1
    45    25    26    1
    46    26    27    1
    47    27    28    1
    48    28    29   am
    49    29    30    2
    50    29    31    1
    51    31    38    1
    52    38    39   am
    53    39    40    2
    54    39    42    1
    55    42    43    1
    56    42    44    1
    57    44    45    1
    58    31    32    1
    59    32    33    1
    60    33    34    1
    61    34    35    1
    62    35    36    1
    63    36    37    1
    64    17    18   ar
    65    18    19   ar
    66     4     5    1
    67     5     6    1
    68    55    56   ar
    69    56    57   ar
    70    57    58   ar
    71    58    59   ar
    72    59    60   ar
    73    60    61   ar
    74    61    89    1
    75    89    90    1
    76    73    74    1
    77    74    75    1
    78    75    76    1
    79    76    77    1
    80    77    78    1
    81    78    79    1
    82    72    68    1
    83    61    52   ar
    84    79    74    1
    85    59    54   ar
    86     6     1    1
    87    19    10   ar
    88    19    14   ar
    89    28    24    1
    90    37    32    1
    91    87    88    1
    92    82    83    1
    93    64    65    1
    94    50    51    1
    95     8     9    1
    96    20    23    1
    97    38    41    1
    98    44    46    1
@<TRIPOS>MOLECULE
*****
 90 98 0 0 0
SMALL
GASTEIGER

@<TRIPOS>ATOM
      1 C          62.9041   84.6817    9.5254 C.3     1  UNL1        0.0196
      2 C          63.0476   84.4051    8.0580 C.3     1  UNL1        0.0017
      3 C          62.2248   85.1727    7.0662 C.3     1  UNL1        0.0017
      4 C          61.2586   86.2169    7.5416 C.3     1  UNL1        0.0196
      5 C          61.1151   86.4936    9.0088 C.3     1  UNL1        0.0017
      6 C          61.9379   85.7259   10.0008 C.3     1  UNL1        0.0017
      7 C          60.4358   86.9845    6.5498 C.3     1  UNL1        0.0881
      8 N          60.4305   88.4843    6.5806 N.pl3   1  UNL1       -0.3180
      9 H          61.2582   88.9753    6.7879 H       1  UNL1        0.1482
     10 C          59.1640   89.2358    6.2955 C.ar    1  UNL1        0.1317
     11 N          57.8759   88.8027    6.9305 N.ar    1  UNL1       -0.2092
     12 C          56.6094   89.5542    6.6455 C.ar    1  UNL1        0.2000
     13 N          56.6310   90.7388    5.7255 N.ar    1  UNL1       -0.2238
     14 C          57.9192   91.1718    5.0906 C.ar    1  UNL1        0.0888
     15 C          57.9408   92.3564    4.1706 C.ar    1  UNL1        0.0574
     16 C          59.2289   92.7895    3.5357 C.ar    1  UNL1        0.1535
     17 C          60.4954   92.0380    3.8207 C.ar    1  UNL1        0.0850
     18 C          60.4738   90.8534    4.7406 C.ar    1  UNL1        0.0220
     19 C          59.1857   90.4203    5.3756 C.ar    1  UNL1        0.0505
     20 N          61.7836   92.4710    3.1857 N.am    1  UNL1       -0.2802
     21 C          61.9851   92.3040    1.7088 C.2     1  UNL1        0.2443
     22 O          60.8984   91.7039    0.8667 O.2     1  UNL1       -0.2730
     23 H          62.4968   92.8649    3.7384 H       1  UNL1        0.1550
     24 C          63.2732   92.7370    1.0739 C.3     1  UNL1        0.1521
     25 C          64.6321   92.6765    1.7065 C.3     1  UNL1        0.0310
     26 C          65.6274   93.2087    0.7185 C.3     1  UNL1        0.0237
     27 C          64.8838   93.5981   -0.5247 C.3     1  UNL1        0.0939
     28 N          63.4288   93.3066   -0.3050 N.am    1  UNL1       -0.2717
     29 C          62.3236   93.5431   -1.2911 C.2     1  UNL1        0.2438
     30 O          60.9089   93.2005   -0.9286 O.2     1  UNL1       -0.2731
     31 C          62.6330   94.1223   -2.6398 C.3     1  UNL1        0.1487
     32 C          63.8432   94.9891   -2.8240 C.3     1  UNL1        0.0269
     33 C          64.2172   95.9888   -1.7701 C.3     1  UNL1        0.0021
     34 C          65.4274   96.8557   -1.9544 C.3     1  UNL1        0.0001
     35 C          66.2636   96.7229   -3.1925 C.3     1  UNL1        0.0000
     36 C          65.8896   95.7232   -4.2464 C.3     1  UNL1        0.0001
     37 C          64.6794   94.8563   -4.0622 C.3     1  UNL1        0.0021
     38 N          61.7322   93.8346   -3.8042 N.am    1  UNL1       -0.2973
     39 C          60.7735   94.8821   -4.2874 C.2     1  UNL1        0.2370
     40 O          60.7156   96.2173   -3.6063 O.2     1  UNL1       -0.2737
     41 H          61.7701   92.9582   -4.2512 H       1  UNL1        0.1499
     42 C          59.8726   94.5945   -5.4518 C.3     1  UNL1        0.1316
     43 C          60.4588   94.3419   -6.8092 C.3     1  UNL1        0.0270
     44 N          58.3855   94.5595   -5.2587 N.3     1  UNL1       -0.2902
     45 C          57.7275   93.3219   -4.7247 C.3     1  UNL1        0.0862
     46 H          57.9659   94.7466   -6.1694 H       1  UNL1        0.1237
     47 O          59.2506   93.9740    2.6157 O.3     1  UNL1       -0.4701
     48 C          58.9508   93.7962    1.1568 C.3     1  UNL1        0.2525
     49 C          63.7269   83.9141   10.5172 C.3     1  UNL1        0.0881
     50 N          63.1145   82.7761   11.2787 N.pl3   1  UNL1       -0.3180
     51 H          62.7276   82.0113   10.7943 H       1  UNL1        0.1482
     52 C          63.6832   86.6666   13.4674 C.ar    1  UNL1        0.0850
     53 C          63.4936   85.3698   12.7378 C.ar    1  UNL1        0.0220
     54 C          63.2813   84.1001   13.5079 C.ar    1  UNL1        0.0505
     55 C          63.0918   82.8032   12.7783 C.ar    1  UNL1        0.1317
     56 N          62.8795   81.5336   13.5483 N.ar    1  UNL1       -0.2092
     57 C          62.8567   81.5608   15.0479 C.ar    1  UNL1        0.2000
     58 N          63.0463   82.8577   15.7774 N.ar    1  UNL1       -0.2238
     59 C          63.2586   84.1273   15.0075 C.ar    1  UNL1        0.0888
     60 C          63.4481   85.4242   15.7370 C.ar    1  UNL1        0.0574
     61 C          63.6604   86.6938   14.9670 C.ar    1  UNL1        0.1535
     62 C          62.7314   88.6212   12.0448 C.2     1  UNL1        0.2443
     63 O          61.3551   88.0364   12.1621 O.2     1  UNL1       -0.2730
     64 N          63.8955   87.9362   12.6974 N.am    1  UNL1       -0.2802
     65 H          64.7988   88.3200   12.6204 H       1  UNL1        0.1550
     66 C          64.9326   90.9321   12.7256 C.2     1  UNL1        0.2438
     67 O          64.9529   89.7714   13.6755 O.2     1  UNL1       -0.2731
     68 N          63.9556   90.9531   11.5877 N.am    1  UNL1       -0.2717
     69 C          63.8187   92.0399   10.5630 C.3     1  UNL1        0.0939
     70 C          62.7223   91.6494    9.6167 C.3     1  UNL1        0.0237
     71 C          62.1816   90.3211   10.0566 C.3     1  UNL1        0.0310
     72 C          62.9438   89.8909   11.2748 C.3     1  UNL1        0.1521
     73 C          65.8895   92.0719   12.9136 C.3     1  UNL1        0.1487
     74 C          66.3215   92.8911   11.7337 C.3     1  UNL1        0.0269
     75 C          65.9376   94.3384   11.6445 C.3     1  UNL1        0.0021
     76 C          66.3696   95.1574   10.4645 C.3     1  UNL1        0.0001
     77 C          67.1855   94.5293    9.3737 C.3     1  UNL1        0.0000
     78 C          67.5694   93.0820    9.4630 C.3     1  UNL1        0.0001
     79 C          67.1374   92.2629   10.6429 C.3     1  UNL1        0.0021
     80 C          67.8800   92.2608   14.5726 C.2     1  UNL1        0.2370
     81 O          68.8208   91.8085   13.4954 O.2     1  UNL1       -0.2737
     82 N          66.4144   92.3925   14.2817 N.am    1  UNL1       -0.2973
     83 H          65.7970   92.6893   14.9888 H       1  UNL1        0.1499
     84 C          68.4049   92.5814   15.9407 C.3     1  UNL1        0.1316
     85 C          67.8182   91.9081   17.1459 C.3     1  UNL1        0.0270
     86 C          69.2160   95.0447   16.0955 C.3     1  UNL1        0.0862
     87 N          69.5165   93.5752   16.1037 N.3     1  UNL1       -0.2902
     88 H          69.9651   93.3714   16.9968 H       1  UNL1        0.1237
     89 O          63.8499   87.9906   15.6966 O.3     1  UNL1       -0.4701
     90 C          63.0772   88.2644   16.9527 C.3     1  UNL1        0.2525
@<TRIPOS>BOND
     1    86    87    1
     2    87    84    1
     3    84    85    1
     4    84    80    1
     5    80    81    2
     6    80    82   am
     7    73    82    1
     8    73    66    1
     9    66    67    2
    10    66    68   am
    11    68    69    1
    12    69    70    1
    13    70    71    1
    14    71    72    1
    15    72    62    1
    16    62    63    2
    17    62    64   am
    18    64    52    1
    19    52    53   ar
    20    53    54   ar
    21    54    55   ar
    22    55    50    1
    23    50    49    1
    24     1    49    1
    25     1     2    1
    26     2     3    1
    27     3     4    1
    28     4     7    1
    29     7     8    1
    30     8    10    1
    31    10    11   ar
    32    11    12   ar
    33    12    13   ar
    34    13    14   ar
    35    14    15   ar
    36    15    16   ar
    37    16    47    1
    38    47    48    1
    39    16    17   ar
    40    17    20    1
    41    20    21   am
    42    21    22    2
    43    24    21    1
    44    24    25    1
    45    25    26    1
    46    26    27    1
    47    27    28    1
    48    28    29   am
    49    29    30    2
    50    29    31    1
    51    31    38    1
    52    38    39   am
    53    39    40    2
    54    39    42    1
    55    42    43    1
    56    42    44    1
    57    44    45    1
    58    31    32    1
    59    32    33    1
    60    33    34    1
    61    34    35    1
    62    35    36    1
    63    36    37    1
    64    17    18   ar
    65    18    19   ar
    66     4     5    1
    67     5     6    1
    68    55    56   ar
    69    56    57   ar
    70    57    58   ar
    71    58    59   ar
    72    59    60   ar
    73    60    61   ar
    74    61    89    1
    75    89    90    1
    76    73    74    1
    77    74    75    1
    78    75    76    1
    79    76    77    1
    80    77    78    1
    81    78    79    1
    82    72    68    1
    83    61    52   ar
    84    79    74    1
    85    59    54   ar
    86     6     1    1
    87    19    10   ar
    88    19    14   ar
    89    28    24    1
    90    37    32    1
    91    87    88    1
    92    82    83    1
    93    64    65    1
    94    50    51    1
    95     8     9    1
    96    20    23    1
    97    38    41    1
    98    44    46    1
@<TRIPOS>MOLECULE
*****
 90 98 0 0 0
SMALL
GASTEIGER

@<TRIPOS>ATOM
      1 C          61.4378   86.1687    7.7291 C.3     1  UNL1        0.0196
      2 C          61.2090   86.4460    9.1855 C.3     1  UNL1        0.0017
      3 C          62.0008   85.7069   10.2231 C.3     1  UNL1        0.0017
      4 C          63.0214   84.6905    9.8045 C.3     1  UNL1        0.0196
      5 C          63.2502   84.4132    8.3482 C.3     1  UNL1        0.0017
      6 C          62.4584   85.1523    7.3105 C.3     1  UNL1        0.0017
      7 C          63.8132   83.9514   10.8421 C.3     1  UNL1        0.0881
      8 N          63.1484   82.9080   11.6904 N.pl3   1  UNL1       -0.3180
      9 H          62.7733   82.0995   11.2724 H       1  UNL1        0.1482
     10 C          63.0553   83.0966   13.1756 C.ar    1  UNL1        0.1317
     11 N          62.7836   81.9200   14.0653 N.ar    1  UNL1       -0.2092
     12 C          62.6905   82.1085   15.5506 C.ar    1  UNL1        0.2000
     13 N          62.8690   83.4737   16.1460 N.ar    1  UNL1       -0.2238
     14 C          63.1407   84.6503   15.2561 C.ar    1  UNL1        0.0888
     15 C          63.3193   86.0155   15.8514 C.ar    1  UNL1        0.0574
     16 C          63.5910   87.1920   14.9616 C.ar    1  UNL1        0.1535
     17 C          63.6841   87.0035   13.4765 C.ar    1  UNL1        0.0850
     18 C          63.5055   85.6383   12.8811 C.ar    1  UNL1        0.0220
     19 C          63.2338   84.4617   13.7709 C.ar    1  UNL1        0.0505
     20 N          63.9558   88.1801   12.5866 N.am    1  UNL1       -0.2802
     21 C          62.8591   89.1554   12.2771 C.2     1  UNL1        0.2443
     22 O          61.4906   88.9542   12.8574 O.2     1  UNL1       -0.2730
     23 H          64.8540   88.3122   12.2057 H       1  UNL1        0.1550
     24 C          63.1308   90.3320   11.3873 C.3     1  UNL1        0.1521
     25 C          62.3993   90.6677   10.1214 C.3     1  UNL1        0.0310
     26 C          62.9981   91.9226    9.5588 C.3     1  UNL1        0.0237
     27 C          64.0998   92.3626   10.4769 C.3     1  UNL1        0.0939
     28 N          64.1818   91.3795   11.6070 N.am    1  UNL1       -0.2717
     29 C          65.1455   91.4343   12.7551 C.2     1  UNL1        0.2438
     30 O          65.1088   90.3749   13.8164 O.2     1  UNL1       -0.2731
     31 C          66.1460   92.5485   12.8418 C.3     1  UNL1        0.1487
     32 C          66.4773   93.3557   11.6218 C.3     1  UNL1        0.0269
     33 C          67.2606   92.7363   10.5025 C.3     1  UNL1        0.0021
     34 C          67.5919   93.5435    9.2824 C.3     1  UNL1        0.0001
     35 C          67.1399   94.9701    9.1815 C.3     1  UNL1        0.0000
     36 C          66.3565   95.5896   10.3007 C.3     1  UNL1        0.0001
     37 C          66.0253   94.7824   11.5208 C.3     1  UNL1        0.0021
     38 N          66.8152   92.8555   14.1487 N.am    1  UNL1       -0.2973
     39 C          68.2573   92.4983   14.3549 C.2     1  UNL1        0.2370
     40 O          69.0303   91.8341   13.2543 O.2     1  UNL1       -0.2737
     41 H          66.3079   93.2915   14.8711 H       1  UNL1        0.1499
     42 C          68.9266   92.8052   15.6618 C.3     1  UNL1        0.1316
     43 C          68.6738   91.9345   16.8567 C.3     1  UNL1        0.0270
     44 N          69.8488   93.9830   15.7737 N.3     1  UNL1       -0.2902
     45 C          69.3844   95.2373   16.4527 C.3     1  UNL1        0.0862
     46 H          70.1113   94.2428   14.8229 H       1  UNL1        0.1237
     47 O          63.7695   88.5572   15.5570 O.3     1  UNL1       -0.4701
     48 C          63.1228   88.8942   16.8678 C.3     1  UNL1        0.2525
     49 C          60.6460   86.9079    6.6915 C.3     1  UNL1        0.0881
     50 N          60.6333   88.4078    6.6854 N.pl3   1  UNL1       -0.3180
     51 H          61.4678   88.9078    6.8367 H       1  UNL1        0.1482
     52 C          60.5507   91.9450    3.9049 C.ar    1  UNL1        0.0850
     53 C          60.5782   90.7659    4.8317 C.ar    1  UNL1        0.0220
     54 C          59.3215   90.3251    5.5220 C.ar    1  UNL1        0.0505
     55 C          59.3490   89.1460    6.4489 C.ar    1  UNL1        0.1317
     56 N          58.0924   88.7051    7.1391 N.ar    1  UNL1       -0.2092
     57 C          56.8083   89.4433    6.9026 C.ar    1  UNL1        0.2000
     58 N          56.7808   90.6223    5.9757 N.ar    1  UNL1       -0.2238
     59 C          58.0374   91.0632    5.2855 C.ar    1  UNL1        0.0888
     60 C          58.0098   92.2423    4.3586 C.ar    1  UNL1        0.0574
     61 C          59.2664   92.6832    3.6683 C.ar    1  UNL1        0.1535
     62 C          61.8609   92.4394    1.7165 C.2     1  UNL1        0.2443
     63 O          60.6578   92.0520    0.9087 O.2     1  UNL1       -0.2730
     64 N          61.8073   92.3859    3.2146 N.am    1  UNL1       -0.2802
     65 H          62.5969   92.6401    3.7448 H       1  UNL1        0.1550
     66 C          62.0269   94.1330   -1.0679 C.2     1  UNL1        0.2438
     67 O          60.6274   93.8352   -0.6175 O.2     1  UNL1       -0.2731
     68 N          63.1939   93.6588   -0.2536 N.am    1  UNL1       -0.2717
     69 C          64.6420   93.8797   -0.5761 C.3     1  UNL1        0.0939
     70 C          65.4608   93.2378    0.5045 C.3     1  UNL1        0.0237
     71 C          64.5185   92.6201    1.4949 C.3     1  UNL1        0.0310
     72 C          63.1176   92.8803    1.0263 C.3     1  UNL1        0.1521
     73 C          62.2593   94.9051   -2.3329 C.3     1  UNL1        0.1487
     74 C          61.3127   94.7566   -3.4869 C.3     1  UNL1        0.0269
     75 C          61.6401   95.3815   -4.8107 C.3     1  UNL1        0.0021
     76 C          60.6934   95.2329   -5.9647 C.3     1  UNL1        0.0001
     77 C          59.4195   94.4595   -5.7950 C.3     1  UNL1        0.0000
     78 C          59.0921   93.8345   -4.4713 C.3     1  UNL1        0.0001
     79 C          60.0387   93.9831   -3.3173 C.3     1  UNL1        0.0021
     80 C          64.6127   95.4414   -3.2941 C.2     1  UNL1        0.2370
     81 O          64.6079   94.1365   -4.0338 O.2     1  UNL1       -0.2737
     82 N          63.4383   95.8257   -2.4436 N.am    1  UNL1       -0.2973
     83 H          63.4414   96.6822   -1.9581 H       1  UNL1        0.1499
     84 C          65.7917   96.3620   -3.4048 C.3     1  UNL1        0.1316
     85 C          66.5124   96.8099   -2.1679 C.3     1  UNL1        0.0270
     86 C          66.7607   95.8478   -5.7600 C.3     1  UNL1        0.0862
     87 N          66.2501   96.8349   -4.7525 N.3     1  UNL1       -0.2902
     88 H          65.4574   97.3114   -5.1827 H       1  UNL1        0.1237
     89 O          59.2389   93.8623    2.7415 O.3     1  UNL1       -0.4701
     90 C          60.1896   95.0034    2.9511 C.3     1  UNL1        0.2525
@<TRIPOS>BOND
     1    86    87    1
     2    87    84    1
     3    84    85    1
     4    84    80    1
     5    80    81    2
     6    80    82   am
     7    73    82    1
     8    73    66    1
     9    66    67    2
    10    66    68   am
    11    68    69    1
    12    69    70    1
    13    70    71    1
    14    71    72    1
    15    72    62    1
    16    62    63    2
    17    62    64   am
    18    64    52    1
    19    52    53   ar
    20    53    54   ar
    21    54    55   ar
    22    55    50    1
    23    50    49    1
    24     1    49    1
    25     1     2    1
    26     2     3    1
    27     3     4    1
    28     4     7    1
    29     7     8    1
    30     8    10    1
    31    10    11   ar
    32    11    12   ar
    33    12    13   ar
    34    13    14   ar
    35    14    15   ar
    36    15    16   ar
    37    16    47    1
    38    47    48    1
    39    16    17   ar
    40    17    20    1
    41    20    21   am
    42    21    22    2
    43    24    21    1
    44    24    25    1
    45    25    26    1
    46    26    27    1
    47    27    28    1
    48    28    29   am
    49    29    30    2
    50    29    31    1
    51    31    38    1
    52    38    39   am
    53    39    40    2
    54    39    42    1
    55    42    43    1
    56    42    44    1
    57    44    45    1
    58    31    32    1
    59    32    33    1
    60    33    34    1
    61    34    35    1
    62    35    36    1
    63    36    37    1
    64    17    18   ar
    65    18    19   ar
    66     4     5    1
    67     5     6    1
    68    55    56   ar
    69    56    57   ar
    70    57    58   ar
    71    58    59   ar
    72    59    60   ar
    73    60    61   ar
    74    61    89    1
    75    89    90    1
    76    73    74    1
    77    74    75    1
    78    75    76    1
    79    76    77    1
    80    77    78    1
    81    78    79    1
    82    72    68    1
    83    61    52   ar
    84    79    74    1
    85    59    54   ar
    86     6     1    1
    87    19    10   ar
    88    19    14   ar
    89    28    24    1
    90    37    32    1
    91    87    88    1
    92    82    83    1
    93    64    65    1
    94    50    51    1
    95     8     9    1
    96    20    23    1
    97    38    41    1
    98    44    46    1
@<TRIPOS>MOLECULE
*****
 90 98 0 0 0
SMALL
GASTEIGER

@<TRIPOS>ATOM
      1 C          61.8073   86.2080    9.7078 C.3     1  UNL1        0.0196
      2 C          60.9677   86.3059    8.4685 C.3     1  UNL1        0.0017
      3 C          60.5378   87.6492    7.9581 C.3     1  UNL1        0.0017
      4 C          60.9474   88.8947    8.6868 C.3     1  UNL1        0.0196
      5 C          61.7869   88.7968    9.9259 C.3     1  UNL1        0.0017
      6 C          62.2169   87.4535   10.4365 C.3     1  UNL1        0.0017
      7 C          60.5174   90.2380    8.1763 C.3     1  UNL1        0.0881
      8 N          60.4392   90.4893    6.6995 N.pl3   1  UNL1       -0.3180
      9 H          61.2645   90.5510    6.1663 H       1  UNL1        0.1482
     10 C          59.1036   90.6465    6.0352 C.ar    1  UNL1        0.1317
     11 N          57.8829   90.0284    6.6499 N.ar    1  UNL1       -0.2092
     12 C          56.5472   90.1856    5.9856 C.ar    1  UNL1        0.2000
     13 N          56.4322   90.9609    4.7066 N.ar    1  UNL1       -0.2238
     14 C          57.6530   91.5790    4.0920 C.ar    1  UNL1        0.0888
     15 C          57.5381   92.3543    2.8130 C.ar    1  UNL1        0.0574
     16 C          58.7588   92.9724    2.1984 C.ar    1  UNL1        0.1535
     17 C          60.0944   92.8151    2.8627 C.ar    1  UNL1        0.0850
     18 C          60.2093   92.0398    4.1416 C.ar    1  UNL1        0.0220
     19 C          58.9886   91.4218    4.7563 C.ar    1  UNL1        0.0505
     20 N          61.3152   93.4332    2.2480 N.am    1  UNL1       -0.2802
     21 C          61.8843   92.8686    0.9802 C.2     1  UNL1        0.2443
     22 O          61.2327   91.6859    0.3271 O.2     1  UNL1       -0.2730
     23 H          61.7429   94.2094    2.6767 H       1  UNL1        0.1550
     24 C          63.1050   93.4867    0.3657 C.3     1  UNL1        0.1521
     25 C          64.4323   93.6746    1.0389 C.3     1  UNL1        0.0310
     26 C          65.3605   94.3294    0.0593 C.3     1  UNL1        0.0237
     27 C          64.6069   94.5463   -1.2195 C.3     1  UNL1        0.0939
     28 N          63.2130   94.0254   -1.0301 N.am    1  UNL1       -0.2717
     29 C          62.1191   94.0407   -2.0563 C.2     1  UNL1        0.2438
     30 O          60.7683   93.4812   -1.7211 O.2     1  UNL1       -0.2731
     31 C          62.3760   94.6154   -3.4178 C.3     1  UNL1        0.1487
     32 C          63.5474   94.1387   -4.2243 C.3     1  UNL1        0.0269
     33 C          64.5165   95.1298   -4.7975 C.3     1  UNL1        0.0021
     34 C          65.6879   94.6531   -5.6040 C.3     1  UNL1        0.0001
     35 C          65.8904   93.1853   -5.8373 C.3     1  UNL1        0.0000
     36 C          64.9213   92.1942   -5.2641 C.3     1  UNL1        0.0001
     37 C          63.7499   92.6709   -4.4576 C.3     1  UNL1        0.0021
     38 N          61.4614   95.6669   -3.9728 N.am    1  UNL1       -0.2973
     39 C          60.2221   95.2661   -4.7168 C.2     1  UNL1        0.2370
     40 O          59.8974   93.8139   -4.9058 O.2     1  UNL1       -0.2737
     41 H          61.6745   96.6200   -3.8488 H       1  UNL1        0.1499
     42 C          59.3075   96.3175   -5.2719 C.3     1  UNL1        0.1316
     43 C          59.5173   96.8353   -6.6639 C.3     1  UNL1        0.0270
     44 N          58.1830   96.8510   -4.4348 N.3     1  UNL1       -0.2902
     45 C          57.8528   96.2044   -3.1222 C.3     1  UNL1        0.0862
     46 H          57.3404   96.8016   -5.0075 H       1  UNL1        0.1237
     47 O          58.6439   93.7477    0.9194 O.3     1  UNL1       -0.4701
     48 C          59.3252   95.0771    0.7845 C.3     1  UNL1        0.2525
     49 C          62.2372   84.8647   10.2182 C.3     1  UNL1        0.0881
     50 N          63.1961   84.7710   11.3679 N.pl3   1  UNL1       -0.3180
     51 H          64.0360   85.2842   11.3515 H       1  UNL1        0.1482
     52 C          63.6538   86.3625   15.5521 C.ar    1  UNL1        0.0850
     53 C          63.5012   85.8320   14.1574 C.ar    1  UNL1        0.0220
     54 C          63.0277   84.4258   13.9375 C.ar    1  UNL1        0.0505
     55 C          62.8751   83.8952   12.5428 C.ar    1  UNL1        0.1317
     56 N          62.4015   82.4891   12.3228 N.ar    1  UNL1       -0.2092
     57 C          62.0806   81.6134   13.4976 C.ar    1  UNL1        0.2000
     58 N          62.2331   82.1440   14.8924 N.ar    1  UNL1       -0.2238
     59 C          62.7067   83.5501   15.1123 C.ar    1  UNL1        0.0888
     60 C          62.8593   84.0807   16.5070 C.ar    1  UNL1        0.0574
     61 C          63.3328   85.4868   16.7269 C.ar    1  UNL1        0.1535
     62 C          63.1394   88.8518   16.0897 C.2     1  UNL1        0.2443
     63 O          61.6779   88.5287   16.1875 O.2     1  UNL1       -0.2730
     64 N          64.1274   87.7687   15.7720 N.am    1  UNL1       -0.2802
     65 H          65.0866   87.9808   15.7079 H       1  UNL1        0.1550
     66 C          65.1106   90.5431   14.1140 C.2     1  UNL1        0.2438
     67 O          64.8086   89.1550   13.6322 O.2     1  UNL1       -0.2731
     68 N          64.5191   91.0354   15.4015 N.am    1  UNL1       -0.2717
     69 C          64.7297   92.3915   16.0069 C.3     1  UNL1        0.0939
     70 C          63.9539   92.4523   17.2893 C.3     1  UNL1        0.0237
     71 C          63.2637   91.1336   17.4764 C.3     1  UNL1        0.0310
     72 C          63.6131   90.2580   16.3097 C.3     1  UNL1        0.1521
     73 C          66.0040   91.4388   13.3082 C.3     1  UNL1        0.1487
     74 C          67.3478   91.8362   13.8434 C.3     1  UNL1        0.0269
     75 C          67.4478   92.5793   15.1425 C.3     1  UNL1        0.0021
     76 C          68.7915   92.9766   15.6777 C.3     1  UNL1        0.0001
     77 C          70.0352   92.6307   14.9139 C.3     1  UNL1        0.0000
     78 C          69.9352   91.8876   13.6147 C.3     1  UNL1        0.0001
     79 C          68.5915   91.4903   13.0796 C.3     1  UNL1        0.0021
     80 C          65.8127   93.3605   11.5701 C.2     1  UNL1        0.2370
     81 O          66.5220   94.2852   12.5144 O.2     1  UNL1       -0.2737
     82 N          65.5537   91.9373   11.9670 N.am    1  UNL1       -0.2973
     83 H          65.0882   91.3304   11.3472 H       1  UNL1        0.1499
     84 C          65.3624   93.8589   10.2289 C.3     1  UNL1        0.1316
     85 C          64.1120   93.3118    9.6066 C.3     1  UNL1        0.0270
     86 C          65.8910   96.3587    9.7582 C.3     1  UNL1        0.0862
     87 N          66.1623   94.9045    9.5101 N.3     1  UNL1       -0.2902
     88 H          67.1407   94.7425    9.7489 H       1  UNL1        0.1237
     89 O          63.4854   86.0174   18.1217 O.3     1  UNL1       -0.4701
     90 C          62.4600   86.9573   18.6829 C.3     1  UNL1        0.2525
@<TRIPOS>BOND
     1    86    87    1
     2    87    84    1
     3    84    85    1
     4    84    80    1
     5    80    81    2
     6    80    82   am
     7    73    82    1
     8    73    66    1
     9    66    67    2
    10    66    68   am
    11    68    69    1
    12    69    70    1
    13    70    71    1
    14    71    72    1
    15    72    62    1
    16    62    63    2
    17    62    64   am
    18    64    52    1
    19    52    53   ar
    20    53    54   ar
    21    54    55   ar
    22    55    50    1
    23    50    49    1
    24     1    49    1
    25     1     2    1
    26     2     3    1
    27     3     4    1
    28     4     7    1
    29     7     8    1
    30     8    10    1
    31    10    11   ar
    32    11    12   ar
    33    12    13   ar
    34    13    14   ar
    35    14    15   ar
    36    15    16   ar
    37    16    47    1
    38    47    48    1
    39    16    17   ar
    40    17    20    1
    41    20    21   am
    42    21    22    2
    43    24    21    1
    44    24    25    1
    45    25    26    1
    46    26    27    1
    47    27    28    1
    48    28    29   am
    49    29    30    2
    50    29    31    1
    51    31    38    1
    52    38    39   am
    53    39    40    2
    54    39    42    1
    55    42    43    1
    56    42    44    1
    57    44    45    1
    58    31    32    1
    59    32    33    1
    60    33    34    1
    61    34    35    1
    62    35    36    1
    63    36    37    1
    64    17    18   ar
    65    18    19   ar
    66     4     5    1
    67     5     6    1
    68    55    56   ar
    69    56    57   ar
    70    57    58   ar
    71    58    59   ar
    72    59    60   ar
    73    60    61   ar
    74    61    89    1
    75    89    90    1
    76    73    74    1
    77    74    75    1
    78    75    76    1
    79    76    77    1
    80    77    78    1
    81    78    79    1
    82    72    68    1
    83    61    52   ar
    84    79    74    1
    85    59    54   ar
    86     6     1    1
    87    19    10   ar
    88    19    14   ar
    89    28    24    1
    90    37    32    1
    91    87    88    1
    92    82    83    1
    93    64    65    1
    94    50    51    1
    95     8     9    1
    96    20    23    1
    97    38    41    1
    98    44    46    1
@<TRIPOS>MOLECULE
*****
 90 98 0 0 0
SMALL
GASTEIGER

@<TRIPOS>ATOM
      1 C          62.1681   86.1489    9.5398 C.3     1  UNL1        0.0196
      2 C          61.1950   86.1260    8.3984 C.3     1  UNL1        0.0017
      3 C          60.5309   87.3952    7.9535 C.3     1  UNL1        0.0017
      4 C          60.8398   88.6874    8.6500 C.3     1  UNL1        0.0196
      5 C          61.8128   88.7103    9.7913 C.3     1  UNL1        0.0017
      6 C          62.4770   87.4410   10.2362 C.3     1  UNL1        0.0017
      7 C          60.1757   89.9566    8.2051 C.3     1  UNL1        0.0881
      8 N          60.1589   90.3245    6.7509 N.pl3   1  UNL1       -0.3180
      9 H          61.0055   90.4217    6.2580 H       1  UNL1        0.1482
     10 C          58.8522   90.5442    6.0479 C.ar    1  UNL1        0.1317
     11 N          57.5897   89.9642    6.6132 N.ar    1  UNL1       -0.2092
     12 C          56.2829   90.1839    5.9102 C.ar    1  UNL1        0.2000
     13 N          56.2387   90.9836    4.6419 N.ar    1  UNL1       -0.2238
     14 C          57.5013   91.5636    4.0767 C.ar    1  UNL1        0.0888
     15 C          57.4572   92.3633    2.8084 C.ar    1  UNL1        0.0574
     16 C          58.7197   92.9433    2.2431 C.ar    1  UNL1        0.1535
     17 C          60.0264   92.7236    2.9461 C.ar    1  UNL1        0.0850
     18 C          60.0705   91.9239    4.2144 C.ar    1  UNL1        0.0220
     19 C          58.8080   91.3439    4.7797 C.ar    1  UNL1        0.0505
     20 N          61.2890   93.3036    2.3808 N.am    1  UNL1       -0.2802
     21 C          61.9115   92.6969    1.1584 C.2     1  UNL1        0.2443
     22 O          61.2714   91.5101    0.5012 O.2     1  UNL1       -0.2730
     23 H          61.7091   94.0825    2.8122 H       1  UNL1        0.1550
     24 C          63.1740   93.2769    0.5932 C.3     1  UNL1        0.1521
     25 C          64.4886   93.3909    1.3067 C.3     1  UNL1        0.0310
     26 C          65.4707   94.0292    0.3698 C.3     1  UNL1        0.0237
     27 C          64.7633   94.3097   -0.9229 C.3     1  UNL1        0.0939
     28 N          63.3438   93.8448   -0.7847 N.am    1  UNL1       -0.2717
     29 C          62.2808   93.9323   -1.8394 C.2     1  UNL1        0.2438
     30 O          60.8987   93.4233   -1.5553 O.2     1  UNL1       -0.2731
     31 C          62.5998   94.5289   -3.1782 C.3     1  UNL1        0.1487
     32 C          61.5532   95.3036   -3.9227 C.3     1  UNL1        0.0269
     33 C          61.8825   95.9291   -5.2457 C.3     1  UNL1        0.0021
     34 C          60.8359   96.7039   -5.9902 C.3     1  UNL1        0.0001
     35 C          59.4600   96.8532   -5.4118 C.3     1  UNL1        0.0000
     36 C          59.1307   96.2277   -4.0888 C.3     1  UNL1        0.0001
     37 C          60.1773   95.4529   -3.3443 C.3     1  UNL1        0.0021
     38 N          63.9656   94.3507   -3.7724 N.am    1  UNL1       -0.2973
     39 C          64.1268   93.6331   -5.0797 C.2     1  UNL1        0.2370
     40 O          62.9224   93.0937   -5.7927 O.2     1  UNL1       -0.2737
     41 H          64.7561   94.7047   -3.3044 H       1  UNL1        0.1499
     42 C          65.4925   93.4548   -5.6740 C.3     1  UNL1        0.1316
     43 C          66.2976   92.2313   -5.3502 C.3     1  UNL1        0.0270
     44 N          66.0531   94.5002   -6.5921 N.3     1  UNL1       -0.2902
     45 C          67.2781   94.2048   -7.4058 C.3     1  UNL1        0.0862
     46 H          66.2717   95.3123   -6.0150 H       1  UNL1        0.1237
     47 O          58.6755   93.7430    0.9748 O.3     1  UNL1       -0.4701
     48 C          57.8295   93.2807   -0.1743 C.3     1  UNL1        0.2525
     49 C          62.8322   84.8796    9.9847 C.3     1  UNL1        0.0881
     50 N          63.5926   84.8442   11.2772 N.pl3   1  UNL1       -0.3180
     51 H          64.4016   85.3942   11.3876 H       1  UNL1        0.1482
     52 C          63.6346   86.3950   15.5013 C.ar    1  UNL1        0.0850
     53 C          63.6206   85.8781   14.0933 C.ar    1  UNL1        0.0220
     54 C          63.1342   84.4877   13.8096 C.ar    1  UNL1        0.0505
     55 C          63.1202   83.9708   12.4015 C.ar    1  UNL1        0.1317
     56 N          62.6339   82.5805   12.1178 N.ar    1  UNL1       -0.2092
     57 C          62.1616   81.7071   13.2421 C.ar    1  UNL1        0.2000
     58 N          62.1756   82.2241   14.6501 N.ar    1  UNL1       -0.2238
     59 C          62.6619   83.6143   14.9339 C.ar    1  UNL1        0.0888
     60 C          62.6759   84.1313   16.3419 C.ar    1  UNL1        0.0574
     61 C          63.1623   85.5215   16.6256 C.ar    1  UNL1        0.1535
     62 C          63.1436   88.9204   15.8631 C.2     1  UNL1        0.2443
     63 O          61.6798   88.6653   15.6573 O.2     1  UNL1       -0.2730
     64 N          64.1210   87.7853   15.7850 N.am    1  UNL1       -0.2802
     65 H          65.0817   87.9527   15.9201 H       1  UNL1        0.1550
     66 C          65.2552   90.6218   14.0476 C.2     1  UNL1        0.2438
     67 O          64.9554   89.2528   13.5127 O.2     1  UNL1       -0.2731
     68 N          64.6006   91.0928   15.3123 N.am    1  UNL1       -0.2717
     69 C          64.8016   92.4285   15.9647 C.3     1  UNL1        0.0939
     70 C          63.9552   92.4720   17.2023 C.3     1  UNL1        0.0237
     71 C          63.2311   91.1631   17.3149 C.3     1  UNL1        0.0310
     72 C          63.6300   90.3108   16.1468 C.3     1  UNL1        0.1521
     73 C          66.2096   91.5197   13.3177 C.3     1  UNL1        0.1487
     74 C          67.5548   91.8229   13.9081 C.3     1  UNL1        0.0269
     75 C          67.6613   92.2979   15.3269 C.3     1  UNL1        0.0021
     76 C          69.0065   92.6010   15.9172 C.3     1  UNL1        0.0001
     77 C          70.2452   92.4291   15.0888 C.3     1  UNL1        0.0000
     78 C          70.1386   91.9541   13.6700 C.3     1  UNL1        0.0001
     79 C          68.7934   91.6510   13.0797 C.3     1  UNL1        0.0021
     80 C          66.1686   93.5390   11.6834 C.2     1  UNL1        0.2370
     81 O          66.9091   94.3687   12.6900 O.2     1  UNL1       -0.2737
     82 N          65.8188   92.1145   11.9973 N.am    1  UNL1       -0.2973
     83 H          65.3328   91.5700   11.3366 H       1  UNL1        0.1499
     84 C          65.7778   94.1338   10.3630 C.3     1  UNL1        0.1316
     85 C          64.7687   95.2424   10.3090 C.3     1  UNL1        0.0270
     86 C          67.7985   94.0102    8.7347 C.3     1  UNL1        0.0862
     87 N          66.3960   93.6202    9.0966 N.3     1  UNL1       -0.2902
     88 H          66.3787   92.6019    9.1524 H       1  UNL1        0.1237
     89 O          63.1763   86.0385   18.0337 O.3     1  UNL1       -0.4701
     90 C          62.3557   87.2394   18.3999 C.3     1  UNL1        0.2525
@<TRIPOS>BOND
     1    86    87    1
     2    87    84    1
     3    84    85    1
     4    84    80    1
     5    80    81    2
     6    80    82   am
     7    73    82    1
     8    73    66    1
     9    66    67    2
    10    66    68   am
    11    68    69    1
    12    69    70    1
    13    70    71    1
    14    71    72    1
    15    72    62    1
    16    62    63    2
    17    62    64   am
    18    64    52    1
    19    52    53   ar
    20    53    54   ar
    21    54    55   ar
    22    55    50    1
    23    50    49    1
    24     1    49    1
    25     1     2    1
    26     2     3    1
    27     3     4    1
    28     4     7    1
    29     7     8    1
    30     8    10    1
    31    10    11   ar
    32    11    12   ar
    33    12    13   ar
    34    13    14   ar
    35    14    15   ar
    36    15    16   ar
    37    16    47    1
    38    47    48    1
    39    16    17   ar
    40    17    20    1
    41    20    21   am
    42    21    22    2
    43    24    21    1
    44    24    25    1
    45    25    26    1
    46    26    27    1
    47    27    28    1
    48    28    29   am
    49    29    30    2
    50    29    31    1
    51    31    38    1
    52    38    39   am
    53    39    40    2
    54    39    42    1
    55    42    43    1
    56    42    44    1
    57    44    45    1
    58    31    32    1
    59    32    33    1
    60    33    34    1
    61    34    35    1
    62    35    36    1
    63    36    37    1
    64    17    18   ar
    65    18    19   ar
    66     4     5    1
    67     5     6    1
    68    55    56   ar
    69    56    57   ar
    70    57    58   ar
    71    58    59   ar
    72    59    60   ar
    73    60    61   ar
    74    61    89    1
    75    89    90    1
    76    73    74    1
    77    74    75    1
    78    75    76    1
    79    76    77    1
    80    77    78    1
    81    78    79    1
    82    72    68    1
    83    61    52   ar
    84    79    74    1
    85    59    54   ar
    86     6     1    1
    87    19    10   ar
    88    19    14   ar
    89    28    24    1
    90    37    32    1
    91    87    88    1
    92    82    83    1
    93    64    65    1
    94    50    51    1
    95     8     9    1
    96    20    23    1
    97    38    41    1
    98    44    46    1
@<TRIPOS>MOLECULE
*****
 90 98 0 0 0
SMALL
GASTEIGER

@<TRIPOS>ATOM
      1 C          62.7057   85.4394    9.6394 C.3     1  UNL1        0.0196
      2 C          62.2964   85.5535    8.2008 C.3     1  UNL1        0.0017
      3 C          61.4664   86.7177    7.7473 C.3     1  UNL1        0.0017
      4 C          61.0457   87.7678    8.7323 C.3     1  UNL1        0.0196
      5 C          61.4550   87.6538   10.1708 C.3     1  UNL1        0.0017
      6 C          62.2851   86.4895   10.6244 C.3     1  UNL1        0.0017
      7 C          60.2157   88.9320    8.2788 C.3     1  UNL1        0.0881
      8 N          60.0963   89.2436    6.8163 N.pl3   1  UNL1       -0.3180
      9 H          60.8573   89.0780    6.2140 H       1  UNL1        0.1482
     10 C          58.8175   89.8074    6.2715 C.ar    1  UNL1        0.1317
     11 N          57.5002   89.3429    6.8181 N.ar    1  UNL1       -0.2092
     12 C          56.2213   89.9067    6.2734 C.ar    1  UNL1        0.2000
     13 N          56.2599   90.9350    5.1820 N.ar    1  UNL1       -0.2238
     14 C          57.5773   91.3995    4.6354 C.ar    1  UNL1        0.0888
     15 C          57.6159   92.4279    3.5441 C.ar    1  UNL1        0.0574
     16 C          58.9332   92.8924    2.9975 C.ar    1  UNL1        0.1535
     17 C          60.2120   92.3286    3.5422 C.ar    1  UNL1        0.0850
     18 C          60.1734   91.3002    4.6336 C.ar    1  UNL1        0.0220
     19 C          58.8561   90.8357    5.1802 C.ar    1  UNL1        0.0505
     20 N          61.5294   92.7931    2.9956 N.am    1  UNL1       -0.2802
     21 C          61.8906   92.5102    1.5676 C.2     1  UNL1        0.2443
     22 O          60.9345   91.7628    0.6860 O.2     1  UNL1       -0.2730
     23 H          62.1570   93.2836    3.5742 H       1  UNL1        0.1550
     24 C          63.2080   92.9747    1.0211 C.3     1  UNL1        0.1521
     25 C          64.5602   92.6462    1.5813 C.3     1  UNL1        0.0310
     26 C          65.5925   93.3177    0.7248 C.3     1  UNL1        0.0237
     27 C          64.8783   94.0612   -0.3648 C.3     1  UNL1        0.0939
     28 N          63.4046   93.8492   -0.1817 N.am    1  UNL1       -0.2717
     29 C          62.3183   94.4128   -1.0490 C.2     1  UNL1        0.2438
     30 O          60.8812   94.1131   -0.7410 O.2     1  UNL1       -0.2731
     31 C          62.6692   95.2762   -2.2244 C.3     1  UNL1        0.1487
     32 C          61.7001   95.4279   -3.3593 C.3     1  UNL1        0.0269
     33 C          61.6726   96.6978   -4.1572 C.3     1  UNL1        0.0021
     34 C          60.7035   96.8496   -5.2921 C.3     1  UNL1        0.0001
     35 C          59.7620   95.7316   -5.6291 C.3     1  UNL1        0.0000
     36 C          59.7896   94.4617   -4.8311 C.3     1  UNL1        0.0001
     37 C          60.7586   94.3099   -3.6962 C.3     1  UNL1        0.0021
     38 N          63.9890   95.9877   -2.2649 N.am    1  UNL1       -0.2973
     39 C          64.9262   95.7649   -3.4147 C.2     1  UNL1        0.2370
     40 O          64.5435   94.8305   -4.5240 O.2     1  UNL1       -0.2737
     41 H          64.2402   96.6010   -1.5369 H       1  UNL1        0.1499
     42 C          66.2461   96.4764   -3.4553 C.3     1  UNL1        0.1316
     43 C          66.9332   96.8559   -2.1771 C.3     1  UNL1        0.0270
     44 N          66.8788   96.8085   -4.7742 N.3     1  UNL1       -0.2902
     45 C          66.0407   96.8559   -6.0173 C.3     1  UNL1        0.0862
     46 H          67.6059   96.1116   -4.9357 H       1  UNL1        0.1237
     47 O          58.9718   93.9207    1.9061 O.3     1  UNL1       -0.4701
     48 C          60.0497   94.9638    1.8962 C.3     1  UNL1        0.2525
     49 C          63.5357   84.2752   10.0929 C.3     1  UNL1        0.0881
     50 N          63.3779   82.9385    9.4309 N.pl3   1  UNL1       -0.3180
     51 H          63.4236   82.8664    8.4501 H       1  UNL1        0.1482
     52 C          62.4604   83.3347   13.8185 C.ar    1  UNL1        0.0850
     53 C          62.7662   83.2026   12.3560 C.ar    1  UNL1        0.0220
     54 C          62.8445   81.8436   11.7259 C.ar    1  UNL1        0.0505
     55 C          63.1503   81.7115   10.2634 C.ar    1  UNL1        0.1317
     56 N          63.2286   80.3526    9.6332 N.ar    1  UNL1       -0.2092
     57 C          63.0010   79.1257   10.4657 C.ar    1  UNL1        0.2000
     58 N          62.6952   79.2578   11.9282 N.ar    1  UNL1       -0.2238
     59 C          62.6169   80.6167   12.5583 C.ar    1  UNL1        0.0888
     60 C          62.3111   80.7488   14.0209 C.ar    1  UNL1        0.0574
     61 C          62.2328   82.1078   14.6510 C.ar    1  UNL1        0.1535
     62 C          63.5293   85.2084   15.2665 C.2     1  UNL1        0.2443
     63 O          64.7548   84.3641   15.4543 O.2     1  UNL1       -0.2730
     64 N          62.3821   84.6937   14.4486 N.am    1  UNL1       -0.2802
     65 H          61.5777   85.2478   14.3254 H       1  UNL1        0.1550
     66 C          63.8691   88.0620   13.7205 C.2     1  UNL1        0.2438
     67 O          63.9977   86.8646   12.8263 O.2     1  UNL1       -0.2731
     68 N          63.6072   87.8791   15.1860 N.am    1  UNL1       -0.2717
     69 C          63.4554   88.9756   16.1982 C.3     1  UNL1        0.0939
     70 C          63.2055   88.3416   17.5345 C.3     1  UNL1        0.0237
     71 C          63.2027   86.8532   17.3481 C.3     1  UNL1        0.0310
     72 C          63.4510   86.5674   15.8967 C.3     1  UNL1        0.1521
     73 C          64.0025   89.4425   13.1490 C.3     1  UNL1        0.1487
     74 C          62.8992   90.0172   12.3108 C.3     1  UNL1        0.0269
     75 C          63.2207   90.7049   11.0171 C.3     1  UNL1        0.0021
     76 C          62.1174   91.2795   10.1789 C.3     1  UNL1        0.0001
     77 C          60.6927   91.1663   10.6343 C.3     1  UNL1        0.0000
     78 C          60.3713   90.4786   11.9280 C.3     1  UNL1        0.0001
     79 C          61.4745   89.9040   12.7662 C.3     1  UNL1        0.0021
     80 C          65.1698   91.4581   14.3001 C.2     1  UNL1        0.2370
     81 O          63.8638   91.8619   14.9176 O.2     1  UNL1       -0.2737
     82 N          65.2391   90.2484   13.4159 N.am    1  UNL1       -0.2973
     83 H          66.0963   89.9834   13.0106 H       1  UNL1        0.1499
     84 C          66.4064   92.2639   14.5670 C.3     1  UNL1        0.1316
     85 C          66.4596   93.7096   14.1706 C.3     1  UNL1        0.0270
     86 C          68.2475   92.2946   16.3998 C.3     1  UNL1        0.0862
     87 N          67.5900   91.6242   15.2302 N.3     1  UNL1       -0.2902
     88 H          67.2866   90.7045   15.5503 H       1  UNL1        0.1237
     89 O          61.9270   82.2399   16.1135 O.3     1  UNL1       -0.4701
     90 C          62.5861   83.3168   16.9233 C.3     1  UNL1        0.2525
@<TRIPOS>BOND
     1    86    87    1
     2    87    84    1
     3    84    85    1
     4    84    80    1
     5    80    81    2
     6    80    82   am
     7    73    82    1
     8    73    66    1
     9    66    67    2
    10    66    68   am
    11    68    69    1
    12    69    70    1
    13    70    71    1
    14    71    72    1
    15    72    62    1
    16    62    63    2
    17    62    64   am
    18    64    52    1
    19    52    53   ar
    20    53    54   ar
    21    54    55   ar
    22    55    50    1
    23    50    49    1
    24     1    49    1
    25     1     2    1
    26     2     3    1
    27     3     4    1
    28     4     7    1
    29     7     8    1
    30     8    10    1
    31    10    11   ar
    32    11    12   ar
    33    12    13   ar
    34    13    14   ar
    35    14    15   ar
    36    15    16   ar
    37    16    47    1
    38    47    48    1
    39    16    17   ar
    40    17    20    1
    41    20    21   am
    42    21    22    2
    43    24    21    1
    44    24    25    1
    45    25    26    1
    46    26    27    1
    47    27    28    1
    48    28    29   am
    49    29    30    2
    50    29    31    1
    51    31    38    1
    52    38    39   am
    53    39    40    2
    54    39    42    1
    55    42    43    1
    56    42    44    1
    57    44    45    1
    58    31    32    1
    59    32    33    1
    60    33    34    1
    61    34    35    1
    62    35    36    1
    63    36    37    1
    64    17    18   ar
    65    18    19   ar
    66     4     5    1
    67     5     6    1
    68    55    56   ar
    69    56    57   ar
    70    57    58   ar
    71    58    59   ar
    72    59    60   ar
    73    60    61   ar
    74    61    89    1
    75    89    90    1
    76    73    74    1
    77    74    75    1
    78    75    76    1
    79    76    77    1
    80    77    78    1
    81    78    79    1
    82    72    68    1
    83    61    52   ar
    84    79    74    1
    85    59    54   ar
    86     6     1    1
    87    19    10   ar
    88    19    14   ar
    89    28    24    1
    90    37    32    1
    91    87    88    1
    92    82    83    1
    93    64    65    1
    94    50    51    1
    95     8     9    1
    96    20    23    1
    97    38    41    1
    98    44    46    1
