@<TRIPOS>MOLECULE
*****
 42 47 0 0 0
SMALL
GASTEIGER

@<TRIPOS>ATOM
      1 C          63.2904   91.6124    9.9384 C.3     1  UNL1        0.1320
      2 N          63.9612   91.5300   11.2775 N.ar    1  UNL1       -0.3072
      3 C          64.9060   92.5423   11.8541 C.ar    1  UNL1        0.1455
      4 N          65.4321   93.8420   11.3212 N.ar    1  UNL1       -0.2267
      5 C          66.3859   94.6581   12.1422 C.ar    1  UNL1        0.1007
      6 C          66.8137   94.1745   13.4961 C.ar    1  UNL1        0.0253
      7 C          66.2877   92.8749   14.0290 C.ar    1  UNL1        0.0591
      8 C          65.3338   92.0588   13.2080 C.ar    1  UNL1        0.0577
      9 C          64.6534   90.7475   13.4682 C.ar    1  UNL1        0.1042
     10 N          64.6967   89.8089   14.6374 N.ar    1  UNL1       -0.2276
     11 C          63.8917   88.5434   14.6134 C.ar    1  UNL1        0.1567
     12 N          63.0433   88.2166   13.4203 N.ar    1  UNL1       -0.2131
     13 C          63.0001   89.1552   12.2511 C.ar    1  UNL1        0.1506
     14 C          63.8051   90.4207   12.2750 C.ar    1  UNL1        0.1110
     15 N          62.1517   88.8284   11.0580 N.pl3   1  UNL1       -0.2892
     16 C          62.4392   87.5996   10.2474 C.3     1  UNL1        0.1095
     17 C          61.5908   87.2728    9.0542 C.3     1  UNL1        0.0939
     18 N          60.4550   88.1749    8.6718 N.3     1  UNL1       -0.2695
     19 C          60.1676   89.4038    9.4825 C.3     1  UNL1        0.0939
     20 C          61.0159   89.7305   10.6755 C.3     1  UNL1        0.1095
     21 C          59.6067   87.8480    7.4787 C.3     1  UNL1        0.0769
     22 C          58.5439   88.8063    7.0289 C.3     1  UNL1        0.0437
     23 C          58.8868   89.9142    6.0776 C.ar    1  UNL1       -0.0184
     24 C          57.8111   90.8302    5.5742 C.ar    1  UNL1       -0.0018
     25 C          58.1540   91.9382    4.6229 C.ar    1  UNL1        0.0316
     26 C          59.5727   92.1300    4.1750 C.ar    1  UNL1        0.1674
     27 F          59.9156   93.2379    3.2237 F       1  UNL1       -0.2018
     28 C          60.6485   91.2138    4.6785 C.ar    1  UNL1        0.1671
     29 F          62.0671   91.4056    4.2306 F       1  UNL1       -0.2018
     30 C          60.3055   90.1060    5.6297 C.ar    1  UNL1        0.0277
     31 C          66.7155   92.3913   15.3830 C.2     1  UNL1        0.2429
     32 N          65.8853   92.7114   16.5905 N.am    1  UNL1       -0.3253
     33 O          67.9734   91.5875   15.5293 O.2     1  UNL1       -0.2704
     34 H          65.0596   93.2390   16.4945 H       1  UNL1        0.1453
     35 H          66.1661   92.3940   17.4792 H       1  UNL1        0.1453
     36 C          63.9350   87.6047   15.7827 C.3     1  UNL1        0.1390
     37 N          63.8273   86.1251   15.5611 N.3     1  UNL1       -0.2620
     38 C          62.7045   85.3527   16.1874 C.3     1  UNL1        0.1050
     39 C          62.5968   83.8731   15.9658 C.3     1  UNL1        0.1595
     40 O          63.6121   83.1659   15.1178 O.3     1  UNL1       -0.3508
     41 C          64.7350   83.9384   14.4914 C.3     1  UNL1        0.1595
     42 C          64.8426   85.4180   14.7130 C.3     1  UNL1        0.1050
@<TRIPOS>BOND
     1     1     2    1
     2     2     3   ar
     3     3     4   ar
     4     4     5   ar
     5     5     6   ar
     6     6     7   ar
     7     7    31    1
     8    31    32   am
     9    31    33    2
    10     7     8   ar
    11     8     9   ar
    12     9    10   ar
    13    10    11   ar
    14    11    36    1
    15    36    37    1
    16    37    38    1
    17    38    39    1
    18    39    40    1
    19    40    41    1
    20    41    42    1
    21    11    12   ar
    22    12    13   ar
    23    13    15    1
    24    15    16    1
    25    16    17    1
    26    17    18    1
    27    18    21    1
    28    21    22    1
    29    22    23    1
    30    23    24   ar
    31    24    25   ar
    32    25    26   ar
    33    26    27    1
    34    26    28   ar
    35    28    29    1
    36    28    30   ar
    37    18    19    1
    38    19    20    1
    39    13    14   ar
    40    14     2   ar
    41     8     3   ar
    42    14     9   ar
    43    42    37    1
    44    20    15    1
    45    30    23   ar
    46    32    34    1
    47    32    35    1
