@<TRIPOS>MOLECULE
*****
 37 41 0 0 0
SMALL
GASTEIGER

@<TRIPOS>ATOM
      1 N          63.8979   90.0961   13.4455 N.3     1  UNL1       -0.2641
      2 C          64.6356   91.2768   12.8871 C.3     1  UNL1        0.0981
      3 C          64.4428   91.6718   11.4530 C.3     1  UNL1        0.0224
      4 C          65.1804   92.8526   10.8946 C.3     1  UNL1        0.0065
      5 C          66.1108   93.6383   11.7704 C.3     1  UNL1        0.0277
      6 C          66.3036   93.2432   13.2045 C.ar    1  UNL1       -0.0073
      7 C          67.2341   94.0290   14.0803 C.ar    1  UNL1       -0.0015
      8 C          67.4268   93.6339   15.5144 C.ar    1  UNL1        0.0203
      9 C          66.6892   92.4532   16.0728 C.ar    1  UNL1        0.0985
     10 N          65.7588   91.6675   15.1971 N.ar    1  UNL1       -0.2471
     11 C          65.5660   92.0625   13.7629 C.ar    1  UNL1        0.0695
     12 C          64.6514   89.0020   14.1420 C.3     1  UNL1        0.0989
     13 C          64.4793   86.5186   14.8859 C.2     1  UNL1       -0.0122
     14 C          63.9048   87.9034   14.8391 C.2     1  UNL1       -0.0120
     15 C          63.7328   85.4202   15.5831 C.3     1  UNL1        0.0950
     16 N          62.4927   84.8461   14.9644 N.3     1  UNL1       -0.2948
     17 H          61.9131   84.5031   15.7304 H       1  UNL1        0.1235
     18 F          63.0979   81.2789   10.5203 F       1  UNL1       -0.2043
     19 C          62.8124   81.4962   11.9767 C.3     1  UNL1        0.2640
     20 F          62.6901   80.0028   11.9074 F       1  UNL1       -0.2043
     21 C          62.4844   81.1949   13.4091 C.3     1  UNL1        0.0679
     22 C          62.3779   82.3116   14.4050 C.3     1  UNL1        0.0213
     23 C          62.5993   83.7295   13.9685 C.3     1  UNL1        0.0546
     24 C          62.9272   84.0307   12.5361 C.3     1  UNL1        0.0213
     25 C          63.0338   82.9141   11.5402 C.3     1  UNL1        0.0679
     26 C          62.4068   90.0095   13.3074 C.3     1  UNL1        0.0888
     27 C          61.8010   89.4443   12.0570 C.3     1  UNL1        0.0748
     28 C          62.3530   88.1842   11.4594 C.3     1  UNL1        0.0432
     29 C          61.7471   87.6190   10.2089 C.ar    1  UNL1       -0.0234
     30 C          62.2991   86.3588    9.6113 C.ar    1  UNL1       -0.0045
     31 C          61.6932   85.7937    8.3609 C.ar    1  UNL1       -0.0003
     32 C          60.5353   86.4888    7.7082 C.ar    1  UNL1       -0.0003
     33 C          59.9833   87.7489    8.3058 C.ar    1  UNL1       -0.0032
     34 C          60.5892   88.3140    9.5561 C.ar    1  UNL1       -0.0103
     35 C          60.0372   89.5743   10.1538 C.3     1  UNL1        0.0953
     36 N          60.6430   90.1394   11.4042 N.3     1  UNL1       -0.2934
     37 H          59.8972   90.1844   12.0985 H       1  UNL1        0.1236
@<TRIPOS>BOND
     1    18    19    1
     2    19    20    1
     3    19    21    1
     4    21    22    1
     5    22    23    1
     6    23    16    1
     7    16    15    1
     8    15    13    1
     9    13    14    2
    10    14    12    1
    11    12     1    1
    12     1    26    1
    13    27    26    1
    14    27    28    1
    15    28    29    1
    16    29    30   ar
    17    30    31   ar
    18    31    32   ar
    19    32    33   ar
    20    33    34   ar
    21    34    35    1
    22    35    36    1
    23     2     1    1
    24     2     3    1
    25     3     4    1
    26     4     5    1
    27     5     6    1
    28     6     7   ar
    29     7     8   ar
    30     8     9   ar
    31     9    10   ar
    32    10    11   ar
    33    23    24    1
    34    24    25    1
    35    25    19    1
    36    36    27    1
    37    11     2    1
    38    34    29   ar
    39    11     6   ar
    40    16    17    1
    41    36    37    1
@<TRIPOS>MOLECULE
*****
 37 41 0 0 0
SMALL
GASTEIGER

@<TRIPOS>ATOM
      1 N          65.2525   92.3420   12.0470 N.3     1  UNL1       -0.2641
      2 C          66.2971   92.7103   11.0354 C.3     1  UNL1        0.0981
      3 C          67.3162   91.6967   10.6066 C.3     1  UNL1        0.0224
      4 C          68.3607   92.0650    9.5950 C.3     1  UNL1        0.0065
      5 C          68.3861   93.4469    9.0121 C.3     1  UNL1        0.0277
      6 C          67.3669   94.4604    9.4409 C.ar    1  UNL1       -0.0073
      7 C          67.3922   95.8424    8.8580 C.ar    1  UNL1       -0.0015
      8 C          66.3730   96.8560    9.2868 C.ar    1  UNL1        0.0203
      9 C          65.3285   96.4877   10.2984 C.ar    1  UNL1        0.0985
     10 N          65.3032   95.1058   10.8813 N.ar    1  UNL1       -0.2471
     11 C          66.3224   94.0922   10.4525 C.ar    1  UNL1        0.0695
     12 C          63.8491   92.0516   11.6043 C.3     1  UNL1        0.0989
     13 C          62.6160   89.7814   11.3289 C.2     1  UNL1       -0.0122
     14 C          63.5567   90.8216   10.7969 C.2     1  UNL1       -0.0120
     15 C          62.3236   88.5516   10.5215 C.3     1  UNL1        0.0950
     16 N          61.7096   87.3512   11.1790 N.3     1  UNL1       -0.2948
     17 H          61.6314   87.5675   12.1727 H       1  UNL1        0.1235
     18 F          64.2308   82.2379   11.7614 F       1  UNL1       -0.2043
     19 C          63.7293   83.3412   10.8775 C.3     1  UNL1        0.2640
     20 F          64.2592   82.3967    9.8398 F       1  UNL1       -0.2043
     21 C          63.4118   84.1165    9.6333 C.3     1  UNL1        0.0679
     22 C          62.7386   85.4532    9.7338 C.3     1  UNL1        0.0213
     23 C          62.3828   86.0146   11.0785 C.3     1  UNL1        0.0546
     24 C          62.7003   85.2392   12.3228 C.3     1  UNL1        0.0213
     25 C          63.3735   83.9026   12.2222 C.3     1  UNL1        0.0679
     26 C          65.6115   92.2641   13.5013 C.3     1  UNL1        0.0888
     27 C          64.9309   91.2649   14.3893 C.3     1  UNL1        0.0748
     28 C          65.0731   89.7973   14.1138 C.3     1  UNL1        0.0432
     29 C          64.3926   88.7981   15.0018 C.ar    1  UNL1       -0.0234
     30 C          64.5347   87.3305   14.7263 C.ar    1  UNL1       -0.0045
     31 C          63.8542   86.3314   15.6143 C.ar    1  UNL1       -0.0003
     32 C          63.0316   86.7998   16.7778 C.ar    1  UNL1       -0.0003
     33 C          62.8894   88.2674   17.0533 C.ar    1  UNL1       -0.0032
     34 C          63.5699   89.2665   16.1653 C.ar    1  UNL1       -0.0103
     35 C          63.4278   90.7342   16.4408 C.3     1  UNL1        0.0953
     36 N          64.1083   91.7333   15.5528 N.3     1  UNL1       -0.2934
     37 H          64.7271   92.2833   16.1486 H       1  UNL1        0.1236
@<TRIPOS>BOND
     1    18    19    1
     2    19    20    1
     3    19    21    1
     4    21    22    1
     5    22    23    1
     6    23    16    1
     7    16    15    1
     8    15    13    1
     9    13    14    2
    10    14    12    1
    11    12     1    1
    12     1    26    1
    13    27    26    1
    14    27    28    1
    15    28    29    1
    16    29    30   ar
    17    30    31   ar
    18    31    32   ar
    19    32    33   ar
    20    33    34   ar
    21    34    35    1
    22    35    36    1
    23     2     1    1
    24     2     3    1
    25     3     4    1
    26     4     5    1
    27     5     6    1
    28     6     7   ar
    29     7     8   ar
    30     8     9   ar
    31     9    10   ar
    32    10    11   ar
    33    23    24    1
    34    24    25    1
    35    25    19    1
    36    36    27    1
    37    11     2    1
    38    34    29   ar
    39    11     6   ar
    40    16    17    1
    41    36    37    1
@<TRIPOS>MOLECULE
*****
 37 41 0 0 0
SMALL
GASTEIGER

@<TRIPOS>ATOM
      1 N          65.2186   92.3632   11.9791 N.3     1  UNL1       -0.2641
      2 C          66.3079   92.7255   11.0135 C.3     1  UNL1        0.0981
      3 C          67.3584   91.7167   10.6550 C.3     1  UNL1        0.0224
      4 C          68.4476   92.0790    9.6894 C.3     1  UNL1        0.0065
      5 C          68.4863   93.4501    9.0824 C.3     1  UNL1        0.0277
      6 C          67.4358   94.4589    9.4409 C.ar    1  UNL1       -0.0073
      7 C          67.4745   95.8301    8.8339 C.ar    1  UNL1       -0.0015
      8 C          66.4239   96.8389    9.1925 C.ar    1  UNL1        0.0203
      9 C          65.3347   96.4766   10.1581 C.ar    1  UNL1        0.0985
     10 N          65.2960   95.1055   10.7651 N.ar    1  UNL1       -0.2471
     11 C          66.3466   94.0966   10.4065 C.ar    1  UNL1        0.0695
     12 C          63.8623   91.9760   11.4689 C.3     1  UNL1        0.0989
     13 C          62.1640   90.0280   11.7359 C.2     1  UNL1       -0.0122
     14 C          63.5096   90.5277   11.3006 C.2     1  UNL1       -0.0120
     15 C          61.8114   88.5798   11.5676 C.3     1  UNL1        0.0950
     16 N          60.7404   88.1765   10.5978 N.3     1  UNL1       -0.2948
     17 H          59.9784   87.7808   11.1484 H       1  UNL1        0.1235
     18 F          60.9831   84.5241    6.1884 F       1  UNL1       -0.2043
     19 C          61.6584   85.2166    7.3348 C.3     1  UNL1        0.2640
     20 F          62.8024   84.3976    6.8150 F       1  UNL1       -0.2043
     21 C          62.7310   85.6247    8.3007 C.3     1  UNL1        0.0679
     22 C          62.4250   86.6114    9.3884 C.3     1  UNL1        0.0213
     23 C          61.0464   87.1899    9.5102 C.3     1  UNL1        0.0546
     24 C          59.9738   86.7817    8.5442 C.3     1  UNL1        0.0213
     25 C          60.2798   85.7952    7.4566 C.3     1  UNL1        0.0679
     26 C          65.4857   92.3881   13.4549 C.3     1  UNL1        0.0888
     27 C          64.8558   91.3612   14.3486 C.3     1  UNL1        0.0748
     28 C          65.0056   89.9018   14.0360 C.3     1  UNL1        0.0432
     29 C          64.3756   88.8749   14.9297 C.ar    1  UNL1       -0.0234
     30 C          64.5254   87.4155   14.6172 C.ar    1  UNL1       -0.0045
     31 C          63.8955   86.3886   15.5109 C.ar    1  UNL1       -0.0003
     32 C          63.1157   86.8212   16.7171 C.ar    1  UNL1       -0.0003
     33 C          62.9659   88.2805   17.0296 C.ar    1  UNL1       -0.0032
     34 C          63.5959   89.3074   16.1359 C.ar    1  UNL1       -0.0103
     35 C          63.4461   90.7669   16.4484 C.3     1  UNL1        0.0953
     36 N          64.0760   91.7937   15.5548 N.3     1  UNL1       -0.2934
     37 H          64.7118   92.3398   16.1361 H       1  UNL1        0.1236
@<TRIPOS>BOND
     1    18    19    1
     2    19    20    1
     3    19    21    1
     4    21    22    1
     5    22    23    1
     6    23    16    1
     7    16    15    1
     8    15    13    1
     9    13    14    2
    10    14    12    1
    11    12     1    1
    12     1    26    1
    13    27    26    1
    14    27    28    1
    15    28    29    1
    16    29    30   ar
    17    30    31   ar
    18    31    32   ar
    19    32    33   ar
    20    33    34   ar
    21    34    35    1
    22    35    36    1
    23     2     1    1
    24     2     3    1
    25     3     4    1
    26     4     5    1
    27     5     6    1
    28     6     7   ar
    29     7     8   ar
    30     8     9   ar
    31     9    10   ar
    32    10    11   ar
    33    23    24    1
    34    24    25    1
    35    25    19    1
    36    36    27    1
    37    11     2    1
    38    34    29   ar
    39    11     6   ar
    40    16    17    1
    41    36    37    1
@<TRIPOS>MOLECULE
*****
 37 41 0 0 0
SMALL
GASTEIGER

@<TRIPOS>ATOM
      1 N          64.0819   90.1252   13.9681 N.3     1  UNL1       -0.2641
      2 C          64.9854   91.3160   14.0943 C.3     1  UNL1        0.0981
      3 C          65.6062   91.6493   15.4185 C.3     1  UNL1        0.0224
      4 C          66.5096   92.8401   15.5447 C.3     1  UNL1        0.0065
      5 C          66.7922   93.6975   14.3468 C.3     1  UNL1        0.0277
      6 C          66.1714   93.3641   13.0227 C.ar    1  UNL1       -0.0073
      7 C          66.4540   94.2215   11.8247 C.ar    1  UNL1       -0.0015
      8 C          65.8332   93.8881   10.5005 C.ar    1  UNL1        0.0203
      9 C          64.9297   92.6973   10.3743 C.ar    1  UNL1        0.0985
     10 N          64.6471   91.8400   11.5722 N.ar    1  UNL1       -0.2471
     11 C          65.2680   92.1733   12.8964 C.ar    1  UNL1        0.0695
     12 C          64.6345   88.7422   14.1467 C.3     1  UNL1        0.0989
     13 C          64.2624   86.3076   14.9737 C.2     1  UNL1       -0.0122
     14 C          63.9454   87.7712   15.0590 C.2     1  UNL1       -0.0120
     15 C          63.5733   85.3366   15.8860 C.3     1  UNL1        0.0950
     16 N          62.3949   84.5505   15.3925 N.3     1  UNL1       -0.2948
     17 H          62.0616   83.9940   16.1796 H       1  UNL1        0.1235
     18 F          63.2460   81.7505   10.4653 F       1  UNL1       -0.2043
     19 C          62.8671   81.7318   11.9165 C.3     1  UNL1        0.2640
     20 F          62.7294   80.2737   11.5927 F       1  UNL1       -0.2043
     21 C          62.4405   81.2068   13.2553 C.3     1  UNL1        0.0679
     22 C          62.2830   82.1463   14.4140 C.3     1  UNL1        0.0213
     23 C          62.5523   83.6109   14.2339 C.3     1  UNL1        0.0546
     24 C          62.9790   84.1360   12.8950 C.3     1  UNL1        0.0213
     25 C          63.1364   83.1964   11.7364 C.3     1  UNL1        0.0679
     26 C          62.6259   90.3174   13.6633 C.3     1  UNL1        0.0888
     27 C          62.0450   89.7617   12.3969 C.3     1  UNL1        0.0748
     28 C          62.5085   88.4324   11.8792 C.3     1  UNL1        0.0432
     29 C          61.9276   87.8766   10.6128 C.ar    1  UNL1       -0.0234
     30 C          62.3911   86.5473   10.0952 C.ar    1  UNL1       -0.0045
     31 C          61.8102   85.9916    8.8289 C.ar    1  UNL1       -0.0003
     32 C          60.7657   86.7652    8.0801 C.ar    1  UNL1       -0.0003
     33 C          60.3022   88.0946    8.5977 C.ar    1  UNL1       -0.0032
     34 C          60.8831   88.6503    9.8641 C.ar    1  UNL1       -0.0103
     35 C          60.4196   89.9797   10.3818 C.3     1  UNL1        0.0953
     36 N          61.0005   90.5353   11.6481 N.3     1  UNL1       -0.2934
     37 H          60.2220   90.6778   12.2915 H       1  UNL1        0.1236
@<TRIPOS>BOND
     1    18    19    1
     2    19    20    1
     3    19    21    1
     4    21    22    1
     5    22    23    1
     6    23    16    1
     7    16    15    1
     8    15    13    1
     9    13    14    2
    10    14    12    1
    11    12     1    1
    12     1    26    1
    13    27    26    1
    14    27    28    1
    15    28    29    1
    16    29    30   ar
    17    30    31   ar
    18    31    32   ar
    19    32    33   ar
    20    33    34   ar
    21    34    35    1
    22    35    36    1
    23     2     1    1
    24     2     3    1
    25     3     4    1
    26     4     5    1
    27     5     6    1
    28     6     7   ar
    29     7     8   ar
    30     8     9   ar
    31     9    10   ar
    32    10    11   ar
    33    23    24    1
    34    24    25    1
    35    25    19    1
    36    36    27    1
    37    11     2    1
    38    34    29   ar
    39    11     6   ar
    40    16    17    1
    41    36    37    1
@<TRIPOS>MOLECULE
*****
 37 41 0 0 0
SMALL
GASTEIGER

@<TRIPOS>ATOM
      1 N          63.6449   88.7059   14.0604 N.3     1  UNL1       -0.2641
      2 C          63.3629   89.2901   12.7080 C.3     1  UNL1        0.0981
      3 C          63.8950   90.6463   12.3510 C.3     1  UNL1        0.0224
      4 C          63.6129   91.2305   10.9985 C.3     1  UNL1        0.0065
      5 C          62.7988   90.4585   10.0030 C.3     1  UNL1        0.0277
      6 C          62.2666   89.1023   10.3600 C.ar    1  UNL1       -0.0073
      7 C          61.4524   88.3302    9.3645 C.ar    1  UNL1       -0.0015
      8 C          60.9203   86.9739    9.7215 C.ar    1  UNL1        0.0203
      9 C          61.2023   86.3897   11.0739 C.ar    1  UNL1        0.0985
     10 N          62.0165   87.1618   12.0694 N.ar    1  UNL1       -0.2471
     11 C          62.5487   88.5180   11.7125 C.ar    1  UNL1        0.0695
     12 C          63.0735   89.3489   15.2892 C.3     1  UNL1        0.0989
     13 C          64.9650   91.1293   15.2397 C.2     1  UNL1       -0.0122
     14 C          63.7553   90.5373   15.9000 C.2     1  UNL1       -0.0120
     15 C          65.6468   92.3176   15.8504 C.3     1  UNL1        0.0950
     16 N          66.1650   93.4181   14.9727 N.3     1  UNL1       -0.2948
     17 H          65.4258   94.1183   14.9110 H       1  UNL1        0.1235
     18 F          68.3566   91.5810   10.0065 F       1  UNL1       -0.2043
     19 C          67.4547   92.5155   10.7571 C.3     1  UNL1        0.2640
     20 F          67.2116   92.9890    9.3547 F       1  UNL1       -0.2043
     21 C          66.4685   93.6145   11.0206 C.3     1  UNL1        0.0679
     22 C          66.0385   93.9154   12.4258 C.3     1  UNL1        0.0213
     23 C          66.5949   93.1173   13.5675 C.3     1  UNL1        0.0546
     24 C          67.5812   92.0183   13.3040 C.3     1  UNL1        0.0213
     25 C          68.0111   91.7174   11.8988 C.3     1  UNL1        0.0679
     26 C          64.4985   87.4786   14.1841 C.3     1  UNL1        0.0888
     27 C          63.8575   86.1258   14.2806 C.3     1  UNL1        0.0748
     28 C          63.9809   85.1546   13.1442 C.3     1  UNL1        0.0432
     29 C          63.3399   83.8019   13.2407 C.ar    1  UNL1       -0.0234
     30 C          63.4634   82.8307   12.1043 C.ar    1  UNL1       -0.0045
     31 C          62.8224   81.4780   12.2009 C.ar    1  UNL1       -0.0003
     32 C          62.0580   81.0965   13.4338 C.ar    1  UNL1       -0.0003
     33 C          61.9346   82.0677   14.5702 C.ar    1  UNL1       -0.0032
     34 C          62.5756   83.4204   14.4737 C.ar    1  UNL1       -0.0103
     35 C          62.4522   84.3917   15.6102 C.3     1  UNL1        0.0953
     36 N          63.0931   85.7444   15.5136 N.3     1  UNL1       -0.2934
     37 H          63.7418   85.8194   16.2972 H       1  UNL1        0.1236
@<TRIPOS>BOND
     1    18    19    1
     2    19    20    1
     3    19    21    1
     4    21    22    1
     5    22    23    1
     6    23    16    1
     7    16    15    1
     8    15    13    1
     9    13    14    2
    10    14    12    1
    11    12     1    1
    12     1    26    1
    13    27    26    1
    14    27    28    1
    15    28    29    1
    16    29    30   ar
    17    30    31   ar
    18    31    32   ar
    19    32    33   ar
    20    33    34   ar
    21    34    35    1
    22    35    36    1
    23     2     1    1
    24     2     3    1
    25     3     4    1
    26     4     5    1
    27     5     6    1
    28     6     7   ar
    29     7     8   ar
    30     8     9   ar
    31     9    10   ar
    32    10    11   ar
    33    23    24    1
    34    24    25    1
    35    25    19    1
    36    36    27    1
    37    11     2    1
    38    34    29   ar
    39    11     6   ar
    40    16    17    1
    41    36    37    1
@<TRIPOS>MOLECULE
*****
 37 41 0 0 0
SMALL
GASTEIGER

@<TRIPOS>ATOM
      1 N          63.5576   88.8308   13.5883 N.3     1  UNL1       -0.2641
      2 C          63.0102   89.1996   12.2413 C.3     1  UNL1        0.0981
      3 C          63.0952   90.6176   11.7598 C.3     1  UNL1        0.0224
      4 C          62.5477   90.9864   10.4128 C.3     1  UNL1        0.0065
      5 C          61.9153   89.9371    9.5474 C.3     1  UNL1        0.0277
      6 C          61.8303   88.5191   10.0289 C.ar    1  UNL1       -0.0073
      7 C          61.1978   87.4697    9.1635 C.ar    1  UNL1       -0.0015
      8 C          61.1128   86.0517    9.6450 C.ar    1  UNL1        0.0203
      9 C          61.6602   85.6829   10.9920 C.ar    1  UNL1        0.0985
     10 N          62.2927   86.7322   11.8574 N.ar    1  UNL1       -0.2471
     11 C          62.3777   88.1503   11.3759 C.ar    1  UNL1        0.0695
     12 C          64.2992   87.5395   13.7686 C.3     1  UNL1        0.0989
     13 C          63.9031   85.1094   14.5977 C.2     1  UNL1       -0.0122
     14 C          63.8939   86.5872   14.8544 C.2     1  UNL1       -0.0120
     15 C          63.4978   84.1571   15.6835 C.3     1  UNL1        0.0950
     16 N          62.4806   83.0905   15.4046 N.3     1  UNL1       -0.2948
     17 H          62.5126   82.4405   16.1900 H       1  UNL1        0.1235
     18 F          63.0660   80.7789   10.1935 F       1  UNL1       -0.2043
     19 C          62.7838   80.6167   11.6578 C.3     1  UNL1        0.2640
     20 F          62.6565   79.1913   11.2086 F       1  UNL1       -0.2043
     21 C          62.4574   79.9595   12.9660 C.3     1  UNL1        0.0679
     22 C          62.3563   80.7841   14.2150 C.3     1  UNL1        0.0213
     23 C          62.5816   82.2659   14.1557 C.3     1  UNL1        0.0546
     24 C          62.9081   82.9231   12.8473 C.3     1  UNL1        0.0213
     25 C          63.0091   82.0985   11.5984 C.3     1  UNL1        0.0679
     26 C          63.3635   89.7534   14.7549 C.3     1  UNL1        0.0888
     27 C          64.4549   90.7040   15.1492 C.3     1  UNL1        0.0748
     28 C          65.7455   90.7226   14.3851 C.3     1  UNL1        0.0432
     29 C          66.8369   91.6731   14.7793 C.ar    1  UNL1       -0.0234
     30 C          68.1275   91.6917   14.0152 C.ar    1  UNL1       -0.0045
     31 C          69.2188   92.6423   14.4094 C.ar    1  UNL1       -0.0003
     32 C          69.0195   93.5742   15.5678 C.ar    1  UNL1       -0.0003
     33 C          67.7289   93.5556   16.3319 C.ar    1  UNL1       -0.0032
     34 C          66.6376   92.6051   15.9377 C.ar    1  UNL1       -0.0103
     35 C          65.3469   92.5864   16.7018 C.3     1  UNL1        0.0953
     36 N          64.2556   91.6359   16.3075 N.3     1  UNL1       -0.2934
     37 H          63.4353   92.2025   16.0918 H       1  UNL1        0.1236
@<TRIPOS>BOND
     1    18    19    1
     2    19    20    1
     3    19    21    1
     4    21    22    1
     5    22    23    1
     6    23    16    1
     7    16    15    1
     8    15    13    1
     9    13    14    2
    10    14    12    1
    11    12     1    1
    12     1    26    1
    13    27    26    1
    14    27    28    1
    15    28    29    1
    16    29    30   ar
    17    30    31   ar
    18    31    32   ar
    19    32    33   ar
    20    33    34   ar
    21    34    35    1
    22    35    36    1
    23     2     1    1
    24     2     3    1
    25     3     4    1
    26     4     5    1
    27     5     6    1
    28     6     7   ar
    29     7     8   ar
    30     8     9   ar
    31     9    10   ar
    32    10    11   ar
    33    23    24    1
    34    24    25    1
    35    25    19    1
    36    36    27    1
    37    11     2    1
    38    34    29   ar
    39    11     6   ar
    40    16    17    1
    41    36    37    1
@<TRIPOS>MOLECULE
*****
 37 41 0 0 0
SMALL
GASTEIGER

@<TRIPOS>ATOM
      1 N          63.7369   89.8931   13.6427 N.3     1  UNL1       -0.2641
      2 C          64.4494   91.0397   12.9888 C.3     1  UNL1        0.0981
      3 C          64.2191   91.3356   11.5364 C.3     1  UNL1        0.0224
      4 C          64.9315   92.4823   10.8825 C.3     1  UNL1        0.0065
      5 C          65.8742   93.3330   11.6809 C.3     1  UNL1        0.0277
      6 C          66.1045   93.0371   13.1332 C.ar    1  UNL1       -0.0073
      7 C          67.0472   93.8879   13.9317 C.ar    1  UNL1       -0.0015
      8 C          67.2775   93.5920   15.3841 C.ar    1  UNL1        0.0203
      9 C          66.5651   92.4454   16.0380 C.ar    1  UNL1        0.0985
     10 N          65.6224   91.5946   15.2396 N.ar    1  UNL1       -0.2471
     11 C          65.3921   91.8905   13.7872 C.ar    1  UNL1        0.0695
     12 C          62.2498   89.7563   13.5030 C.3     1  UNL1        0.0989
     13 C          60.7287   90.1098   11.4267 C.2     1  UNL1       -0.0122
     14 C          61.6607   89.2445   12.2219 C.2     1  UNL1       -0.0120
     15 C          60.1397   89.5980   10.1456 C.3     1  UNL1        0.0950
     16 N          59.6596   88.1798   10.0547 N.3     1  UNL1       -0.2948
     17 H          59.6617   87.8068   11.0041 H       1  UNL1        0.1235
     18 F          61.6490   84.3478    6.2866 F       1  UNL1       -0.2043
     19 C          61.8700   85.2161    7.4895 C.3     1  UNL1        0.2640
     20 F          63.2199   84.5709    7.3825 F       1  UNL1       -0.2043
     21 C          62.5599   85.8603    8.6553 C.3     1  UNL1        0.0679
     22 C          61.8231   86.8482    9.5104 C.3     1  UNL1        0.0213
     23 C          60.3964   87.1919    9.1997 C.3     1  UNL1        0.0546
     24 C          59.7066   86.5476    8.0339 C.3     1  UNL1        0.0213
     25 C          60.4434   85.5597    7.1788 C.3     1  UNL1        0.0679
     26 C          64.5117   88.8832   14.4364 C.3     1  UNL1        0.0888
     27 C          64.0295   87.4653   14.5204 C.3     1  UNL1        0.0748
     28 C          63.8568   86.6564   13.2691 C.3     1  UNL1        0.0432
     29 C          63.3747   85.2385   13.3531 C.ar    1  UNL1       -0.0234
     30 C          63.2020   84.4296   12.1018 C.ar    1  UNL1       -0.0045
     31 C          62.7198   83.0118   12.1858 C.ar    1  UNL1       -0.0003
     32 C          62.4104   82.4027   13.5212 C.ar    1  UNL1       -0.0003
     33 C          62.5831   83.2116   14.7726 C.ar    1  UNL1       -0.0032
     34 C          63.0652   84.6294   14.6885 C.ar    1  UNL1       -0.0103
     35 C          63.2379   85.4384   15.9399 C.3     1  UNL1        0.0953
     36 N          63.7201   86.8562   15.8558 N.3     1  UNL1       -0.2934
     37 H          64.5753   86.9097   16.4091 H       1  UNL1        0.1236
@<TRIPOS>BOND
     1    18    19    1
     2    19    20    1
     3    19    21    1
     4    21    22    1
     5    22    23    1
     6    23    16    1
     7    16    15    1
     8    15    13    1
     9    13    14    2
    10    14    12    1
    11    12     1    1
    12     1    26    1
    13    27    26    1
    14    27    28    1
    15    28    29    1
    16    29    30   ar
    17    30    31   ar
    18    31    32   ar
    19    32    33   ar
    20    33    34   ar
    21    34    35    1
    22    35    36    1
    23     2     1    1
    24     2     3    1
    25     3     4    1
    26     4     5    1
    27     5     6    1
    28     6     7   ar
    29     7     8   ar
    30     8     9   ar
    31     9    10   ar
    32    10    11   ar
    33    23    24    1
    34    24    25    1
    35    25    19    1
    36    36    27    1
    37    11     2    1
    38    34    29   ar
    39    11     6   ar
    40    16    17    1
    41    36    37    1
@<TRIPOS>MOLECULE
*****
 37 41 0 0 0
SMALL
GASTEIGER

@<TRIPOS>ATOM
      1 N          61.9735   87.8548   10.9445 N.3     1  UNL1       -0.2641
      2 C          62.6758   89.1693   11.1146 C.3     1  UNL1        0.0981
      3 C          62.6385   90.1874   10.0137 C.3     1  UNL1        0.0224
      4 C          63.3407   91.5019   10.1837 C.3     1  UNL1        0.0065
      5 C          64.0802   91.7983   11.4546 C.3     1  UNL1        0.0277
      6 C          64.1175   90.7802   12.5555 C.ar    1  UNL1       -0.0073
      7 C          64.8570   91.0765   13.8265 C.ar    1  UNL1       -0.0015
      8 C          64.8943   90.0584   14.9274 C.ar    1  UNL1        0.0203
      9 C          64.1921   88.7439   14.7573 C.ar    1  UNL1        0.0985
     10 N          63.4526   88.4475   13.4864 N.ar    1  UNL1       -0.2471
     11 C          63.4153   89.4657   12.3855 C.ar    1  UNL1        0.0695
     12 C          60.4829   87.7763   11.0914 C.3     1  UNL1        0.0989
     13 C          60.1199   88.1608    8.5477 C.2     1  UNL1       -0.0122
     14 C          59.6135   87.6745    9.8732 C.2     1  UNL1       -0.0120
     15 C          59.2505   88.0590    7.3296 C.3     1  UNL1        0.0950
     16 N          58.3879   89.2175    6.9248 N.3     1  UNL1       -0.2948
     17 H          57.5237   88.8248    6.5514 H       1  UNL1        0.1235
     18 F          61.1699   92.6445    3.2700 F       1  UNL1       -0.2043
     19 C          59.8839   92.1849    3.8906 C.3     1  UNL1        0.2640
     20 F          59.3621   93.2406    2.9617 F       1  UNL1       -0.2043
     21 C          58.4168   92.0919    4.1886 C.3     1  UNL1        0.0679
     22 C          57.9181   91.1028    5.2000 C.3     1  UNL1        0.0213
     23 C          58.8865   90.2066    5.9135 C.3     1  UNL1        0.0546
     24 C          60.3537   90.2996    5.6154 C.3     1  UNL1        0.0213
     25 C          60.8524   91.2887    4.6041 C.3     1  UNL1        0.0679
     26 C          62.7620   86.6187   10.6276 C.3     1  UNL1        0.0888
     27 C          62.7249   85.4454   11.5615 C.3     1  UNL1        0.0748
     28 C          62.7674   84.0495   11.0141 C.3     1  UNL1        0.0432
     29 C          62.7303   82.8762   11.9480 C.ar    1  UNL1       -0.0234
     30 C          62.7727   81.4804   11.4007 C.ar    1  UNL1       -0.0045
     31 C          62.7356   80.3072   12.3345 C.ar    1  UNL1       -0.0003
     32 C          62.6560   80.5298   13.8158 C.ar    1  UNL1       -0.0003
     33 C          62.6136   81.9257   14.3632 C.ar    1  UNL1       -0.0032
     34 C          62.6507   83.0989   13.4293 C.ar    1  UNL1       -0.0103
     35 C          62.6082   84.4949   13.9766 C.3     1  UNL1        0.0953
     36 N          62.6453   85.6681   13.0428 N.3     1  UNL1       -0.2934
     37 H          63.4603   86.2244   13.3011 H       1  UNL1        0.1236
@<TRIPOS>BOND
     1    18    19    1
     2    19    20    1
     3    19    21    1
     4    21    22    1
     5    22    23    1
     6    23    16    1
     7    16    15    1
     8    15    13    1
     9    13    14    2
    10    14    12    1
    11    12     1    1
    12     1    26    1
    13    27    26    1
    14    27    28    1
    15    28    29    1
    16    29    30   ar
    17    30    31   ar
    18    31    32   ar
    19    32    33   ar
    20    33    34   ar
    21    34    35    1
    22    35    36    1
    23     2     1    1
    24     2     3    1
    25     3     4    1
    26     4     5    1
    27     5     6    1
    28     6     7   ar
    29     7     8   ar
    30     8     9   ar
    31     9    10   ar
    32    10    11   ar
    33    23    24    1
    34    24    25    1
    35    25    19    1
    36    36    27    1
    37    11     2    1
    38    34    29   ar
    39    11     6   ar
    40    16    17    1
    41    36    37    1
@<TRIPOS>MOLECULE
*****
 37 41 0 0 0
SMALL
GASTEIGER

@<TRIPOS>ATOM
      1 N          60.7284   87.2957   10.1231 N.3     1  UNL1       -0.2641
      2 C          61.7148   86.2129    9.7997 C.3     1  UNL1        0.0981
      3 C          62.0939   85.9452    8.3734 C.3     1  UNL1        0.0224
      4 C          63.0804   84.8625    8.0500 C.3     1  UNL1        0.0065
      5 C          63.6878   84.0474    9.1530 C.3     1  UNL1        0.0277
      6 C          63.3087   84.3151   10.5794 C.ar    1  UNL1       -0.0073
      7 C          63.9161   83.5001   11.6825 C.ar    1  UNL1       -0.0015
      8 C          63.5370   83.7678   13.1089 C.ar    1  UNL1        0.0203
      9 C          62.5505   84.8505   13.4323 C.ar    1  UNL1        0.0985
     10 N          61.9431   85.6656   12.3292 N.ar    1  UNL1       -0.2471
     11 C          62.3222   85.3979   10.9028 C.ar    1  UNL1        0.0695
     12 C          59.5156   87.4871    9.2614 C.3     1  UNL1        0.0989
     13 C          59.3171   89.2893    7.4005 C.2     1  UNL1       -0.0122
     14 C          59.6719   87.8955    7.8265 C.2     1  UNL1       -0.0120
     15 C          59.4735   89.6976    5.9657 C.3     1  UNL1        0.0950
     16 N          59.3810   91.1453    5.5835 N.3     1  UNL1       -0.2948
     17 H          58.4099   91.3201    5.3251 H       1  UNL1        0.1235
     18 F          61.8455   93.7311    1.1024 F       1  UNL1       -0.2043
     19 C          61.9253   92.7565    2.2398 C.3     1  UNL1        0.2640
     20 F          63.3044   92.6048    1.6697 F       1  UNL1       -0.2043
     21 C          62.4840   91.7293    3.1792 C.3     1  UNL1        0.0679
     22 C          61.6359   91.1922    4.2939 C.3     1  UNL1        0.0213
     23 C          60.2291   91.6823    4.4690 C.3     1  UNL1        0.0546
     24 C          59.6704   92.7096    3.5295 C.3     1  UNL1        0.0213
     25 C          60.5185   93.2467    2.4149 C.3     1  UNL1        0.0679
     26 C          60.9546   88.1870   11.3081 C.3     1  UNL1        0.0888
     27 C          61.9618   89.2959   11.2311 C.3     1  UNL1        0.0748
     28 C          62.8556   89.5800   12.4017 C.3     1  UNL1        0.0432
     29 C          63.8628   90.6890   12.3247 C.ar    1  UNL1       -0.0234
     30 C          64.7565   90.9731   13.4954 C.ar    1  UNL1       -0.0045
     31 C          65.7636   92.0820   13.4183 C.ar    1  UNL1       -0.0003
     32 C          65.8770   92.9068   12.1705 C.ar    1  UNL1       -0.0003
     33 C          64.9833   92.6227   10.9999 C.ar    1  UNL1       -0.0032
     34 C          63.9762   91.5138   11.0769 C.ar    1  UNL1       -0.0103
     35 C          63.0824   91.2296    9.9062 C.3     1  UNL1        0.0953
     36 N          62.0753   90.1207    9.9833 N.3     1  UNL1       -0.2934
     37 H          62.2886   89.4758    9.2224 H       1  UNL1        0.1236
@<TRIPOS>BOND
     1    18    19    1
     2    19    20    1
     3    19    21    1
     4    21    22    1
     5    22    23    1
     6    23    16    1
     7    16    15    1
     8    15    13    1
     9    13    14    2
    10    14    12    1
    11    12     1    1
    12     1    26    1
    13    27    26    1
    14    27    28    1
    15    28    29    1
    16    29    30   ar
    17    30    31   ar
    18    31    32   ar
    19    32    33   ar
    20    33    34   ar
    21    34    35    1
    22    35    36    1
    23     2     1    1
    24     2     3    1
    25     3     4    1
    26     4     5    1
    27     5     6    1
    28     6     7   ar
    29     7     8   ar
    30     8     9   ar
    31     9    10   ar
    32    10    11   ar
    33    23    24    1
    34    24    25    1
    35    25    19    1
    36    36    27    1
    37    11     2    1
    38    34    29   ar
    39    11     6   ar
    40    16    17    1
    41    36    37    1
