@<TRIPOS>MOLECULE
*****
 28 30 0 0 0
SMALL
GASTEIGER

@<TRIPOS>ATOM
      1 C          63.1760   90.4025   11.8984 C.ar    1  UNL1        0.1534
      2 C          63.8889   90.5400   13.2110 C.ar    1  UNL1        0.0351
      3 C          65.0149   91.5206   13.3538 C.ar    1  UNL1        0.0722
      4 CL         65.7278   91.6582   14.6664 Cl      1  UNL1       -0.0809
      5 C          65.4280   92.3638   12.1840 C.ar    1  UNL1        0.0577
      6 C          64.7152   92.2263   10.8714 C.ar    1  UNL1        0.0462
      7 C          63.5892   91.2457   10.7286 C.ar    1  UNL1        0.1602
      8 F          62.8762   91.1081    9.4160 F       1  UNL1       -0.2027
      9 O          62.9952   88.2941   12.0465 O.2     1  UNL1       -0.1498
     10 S          62.0499   89.4218   11.7556 S.O2    1  UNL1        0.0772
     11 O          61.1047   90.5496   11.4647 O.2     1  UNL1       -0.1498
     12 N          60.9240   88.4412   11.6128 N.pl3   1  UNL1       -0.1936
     13 H          60.3889   88.1881   12.3995 H       1  UNL1        0.1758
     14 C          60.6132   87.8462   10.2713 C.ar    1  UNL1        0.1786
     15 N          59.9036   88.5357    9.1439 N.ar    1  UNL1       -0.2214
     16 C          59.8093   87.5729    7.9976 C.ar    1  UNL1        0.1079
     17 C          60.4606   86.2882    8.4166 C.ar    1  UNL1        0.0588
     18 S          60.9574   86.4571    9.8219 S.2     1  UNL1       -0.0497
     19 N          66.5541   93.3444   12.3268 N.pl3   1  UNL1       -0.3319
     20 H          67.4458   93.0330   12.6045 H       1  UNL1        0.1468
     21 C          66.3215   94.7995   12.0465 C.3     1  UNL1        0.0884
     22 C          66.3211   95.3003   10.6325 C.3     1  UNL1        0.0353
     23 C          67.4046   94.8757    9.6862 C.3     1  UNL1        0.0045
     24 C          67.4041   95.3764    8.2722 C.3     1  UNL1        0.0172
     25 C          66.3201   96.3018    7.8047 C.3     1  UNL1        0.0686
     26 N          65.2365   96.7264    8.7510 N.3     1  UNL1       -0.2974
     27 C          65.2370   96.2256   10.1650 C.3     1  UNL1        0.0702
     28 H          64.3518   96.4347    8.3357 H       1  UNL1        0.1232
@<TRIPOS>BOND
     1     9    10    2
     2    10    11    2
     3    10    12    1
     4    12    14    1
     5    14    15   ar
     6    15    16   ar
     7    16    17   ar
     8    17    18   ar
     9    10     1    1
    10     1     2   ar
    11     2     3   ar
    12     3     4    1
    13     3     5   ar
    14     5    19    1
    15    19    21    1
    16    22    21    1
    17    22    23    1
    18    23    24    1
    19    24    25    1
    20    25    26    1
    21    26    27    1
    22     5     6   ar
    23     6     7   ar
    24     7     8    1
    25    18    14   ar
    26     7     1   ar
    27    27    22    1
    28    12    13    1
    29    19    20    1
    30    26    28    1
@<TRIPOS>MOLECULE
*****
 28 30 0 0 0
SMALL
GASTEIGER

@<TRIPOS>ATOM
      1 C          63.6035   90.6589   11.8317 C.ar    1  UNL1        0.1534
      2 C          62.6232   90.6568   10.6964 C.ar    1  UNL1        0.0351
      3 C          61.7685   89.4499   10.4457 C.ar    1  UNL1        0.0722
      4 CL         60.7881   89.4478    9.3103 Cl      1  UNL1       -0.0809
      5 C          61.8940   88.2451   11.3304 C.ar    1  UNL1        0.0577
      6 C          62.8743   88.2472   12.4657 C.ar    1  UNL1        0.0462
      7 C          63.7290   89.4540   12.7164 C.ar    1  UNL1        0.1602
      8 F          64.7094   89.4561   13.8517 F       1  UNL1       -0.2027
      9 O          63.9939   91.8984   13.5083 O.2     1  UNL1       -0.1498
     10 S          64.4583   91.8658   12.0824 S.O2    1  UNL1        0.0772
     11 O          64.9226   91.8331   10.6565 O.2     1  UNL1       -0.1498
     12 N          65.3130   93.0726   12.3331 N.pl3   1  UNL1       -0.1936
     13 H          65.1841   93.8874   11.7957 H       1  UNL1        0.1758
     14 C          66.3642   93.0381   13.4027 C.ar    1  UNL1        0.1786
     15 N          66.4774   93.9873   14.5586 N.ar    1  UNL1       -0.2214
     16 C          67.6699   93.5842   15.3743 C.ar    1  UNL1        0.1079
     17 C          68.2937   92.3858   14.7226 C.ar    1  UNL1        0.0588
     18 S          67.4867   92.0483   13.5039 S.2     1  UNL1       -0.0497
     19 N          61.0393   87.0382   11.0797 N.pl3   1  UNL1       -0.3319
     20 H          60.1500   86.9696   11.4965 H       1  UNL1        0.1468
     21 C          61.5394   85.9358   10.1939 C.3     1  UNL1        0.0884
     22 C          62.4884   84.9092   10.7374 C.3     1  UNL1        0.0353
     23 C          63.3857   84.1496    9.8057 C.3     1  UNL1        0.0045
     24 C          64.3347   83.1230   10.3492 C.3     1  UNL1        0.0172
     25 C          64.3864   82.8559   11.8243 C.3     1  UNL1        0.0686
     26 N          63.4892   83.6154   12.7560 N.3     1  UNL1       -0.2974
     27 C          62.5402   84.6421   12.2125 C.3     1  UNL1        0.0702
     28 H          64.0947   84.0969   13.4207 H       1  UNL1        0.1232
@<TRIPOS>BOND
     1     9    10    2
     2    10    11    2
     3    10    12    1
     4    12    14    1
     5    14    15   ar
     6    15    16   ar
     7    16    17   ar
     8    17    18   ar
     9    10     1    1
    10     1     2   ar
    11     2     3   ar
    12     3     4    1
    13     3     5   ar
    14     5    19    1
    15    19    21    1
    16    22    21    1
    17    22    23    1
    18    23    24    1
    19    24    25    1
    20    25    26    1
    21    26    27    1
    22     5     6   ar
    23     6     7   ar
    24     7     8    1
    25    18    14   ar
    26     7     1   ar
    27    27    22    1
    28    12    13    1
    29    19    20    1
    30    26    28    1
@<TRIPOS>MOLECULE
*****
 28 30 0 0 0
SMALL
GASTEIGER

@<TRIPOS>ATOM
      1 C          62.9255   90.1563   11.9140 C.ar    1  UNL1        0.1534
      2 C          63.5822   90.2144   13.2613 C.ar    1  UNL1        0.0351
      3 C          64.7269   91.1545   13.4978 C.ar    1  UNL1        0.0722
      4 CL         65.3837   91.2126   14.8452 Cl      1  UNL1       -0.0809
      5 C          65.2148   92.0366   12.3870 C.ar    1  UNL1        0.0577
      6 C          64.5580   91.9785   11.0397 C.ar    1  UNL1        0.0462
      7 C          63.4134   91.0384   10.8032 C.ar    1  UNL1        0.1602
      8 F          62.7566   90.9803    9.4558 F       1  UNL1       -0.2027
      9 O          60.8395   90.3815   11.6016 O.2     1  UNL1       -0.1498
     10 S          61.7808   89.2162   11.6775 S.O2    1  UNL1        0.0772
     11 O          62.7222   88.0509   11.7534 O.2     1  UNL1       -0.1498
     12 N          60.6362   88.2761   11.4409 N.pl3   1  UNL1       -0.1936
     13 H          60.0434   88.0251   12.1858 H       1  UNL1        0.1758
     14 C          60.3946   87.7185   10.0695 C.ar    1  UNL1        0.1786
     15 N          60.6884   86.3169    9.6232 N.ar    1  UNL1       -0.2214
     16 C          60.2923   86.1968    8.1815 C.ar    1  UNL1        0.1079
     17 C          59.7537   87.5243    7.7367 C.ar    1  UNL1        0.0588
     18 S          59.8169   88.4648    8.9036 S.2     1  UNL1       -0.0497
     19 N          66.3594   92.9767   12.6235 N.pl3   1  UNL1       -0.3319
     20 H          67.2048   92.6386   12.9981 H       1  UNL1        0.1468
     21 C          66.2161   94.4320   12.2893 C.3     1  UNL1        0.0884
     22 C          66.5996   94.9300   10.9273 C.3     1  UNL1        0.0353
     23 C          66.3276   96.3549   10.5458 C.3     1  UNL1        0.0045
     24 C          66.7110   96.8530    9.1839 C.3     1  UNL1        0.0172
     25 C          67.3665   95.9261    8.2035 C.3     1  UNL1        0.0686
     26 N          67.6385   94.5012    8.5850 N.3     1  UNL1       -0.2974
     27 C          67.2551   94.0031    9.9469 C.3     1  UNL1        0.0702
     28 H          68.6441   94.3581    8.4915 H       1  UNL1        0.1232
@<TRIPOS>BOND
     1     9    10    2
     2    10    11    2
     3    10    12    1
     4    12    14    1
     5    14    15   ar
     6    15    16   ar
     7    16    17   ar
     8    17    18   ar
     9    10     1    1
    10     1     2   ar
    11     2     3   ar
    12     3     4    1
    13     3     5   ar
    14     5    19    1
    15    19    21    1
    16    22    21    1
    17    22    23    1
    18    23    24    1
    19    24    25    1
    20    25    26    1
    21    26    27    1
    22     5     6   ar
    23     6     7   ar
    24     7     8    1
    25    18    14   ar
    26     7     1   ar
    27    27    22    1
    28    12    13    1
    29    19    20    1
    30    26    28    1
@<TRIPOS>MOLECULE
*****
 28 30 0 0 0
SMALL
GASTEIGER

@<TRIPOS>ATOM
      1 C          63.7870   86.8066   15.4870 C.ar    1  UNL1        0.1534
      2 C          64.0953   87.5995   14.2516 C.ar    1  UNL1        0.0351
      3 C          63.9757   89.0946   14.2708 C.ar    1  UNL1        0.0722
      4 CL         64.2840   89.8875   13.0354 Cl      1  UNL1       -0.0809
      5 C          63.5478   89.7967   15.5253 C.ar    1  UNL1        0.0577
      6 C          63.2395   89.0038   16.7607 C.ar    1  UNL1        0.0462
      7 C          63.3591   87.5088   16.7415 C.ar    1  UNL1        0.1602
      8 F          63.0508   86.7158   17.9770 F       1  UNL1       -0.2027
      9 O          62.4629   85.1911   15.8571 O.2     1  UNL1       -0.1498
     10 S          63.9065   85.3114   15.4679 S.O2    1  UNL1        0.0772
     11 O          65.3501   85.4318   15.0787 O.2     1  UNL1       -0.1498
     12 N          64.0260   83.8164   15.4488 N.pl3   1  UNL1       -0.1936
     13 H          64.4964   83.3508   16.1776 H       1  UNL1        0.1758
     14 C          63.4289   83.0306   14.3192 C.ar    1  UNL1        0.1786
     15 N          62.8826   81.6364   14.4070 N.ar    1  UNL1       -0.2214
     16 C          62.3893   81.2452   13.0455 C.ar    1  UNL1        0.1079
     17 C          62.6307   82.3977   12.1162 C.ar    1  UNL1        0.0588
     18 S          63.2732   83.5012   12.9034 S.2     1  UNL1       -0.0497
     19 N          63.4282   91.2919   15.5444 N.pl3   1  UNL1       -0.3319
     20 H          62.6708   91.7309   15.0941 H       1  UNL1        0.1468
     21 C          64.4626   92.1180   16.2497 C.3     1  UNL1        0.0884
     22 C          65.8190   92.3047   15.6369 C.3     1  UNL1        0.0353
     23 C          67.0292   92.4214   16.5153 C.3     1  UNL1        0.0045
     24 C          68.3855   92.6080   15.9025 C.3     1  UNL1        0.0172
     25 C          68.5316   92.6779   14.4113 C.3     1  UNL1        0.0686
     26 N          67.3214   92.5611   13.5329 N.3     1  UNL1       -0.2974
     27 C          65.9651   92.3745   14.1457 C.3     1  UNL1        0.0702
     28 H          67.4794   91.7623   12.9186 H       1  UNL1        0.1232
@<TRIPOS>BOND
     1     9    10    2
     2    10    11    2
     3    10    12    1
     4    12    14    1
     5    14    15   ar
     6    15    16   ar
     7    16    17   ar
     8    17    18   ar
     9    10     1    1
    10     1     2   ar
    11     2     3   ar
    12     3     4    1
    13     3     5   ar
    14     5    19    1
    15    19    21    1
    16    22    21    1
    17    22    23    1
    18    23    24    1
    19    24    25    1
    20    25    26    1
    21    26    27    1
    22     5     6   ar
    23     6     7   ar
    24     7     8    1
    25    18    14   ar
    26     7     1   ar
    27    27    22    1
    28    12    13    1
    29    19    20    1
    30    26    28    1
@<TRIPOS>MOLECULE
*****
 28 30 0 0 0
SMALL
GASTEIGER

@<TRIPOS>ATOM
      1 C          63.7946   90.8210   11.8401 C.ar    1  UNL1        0.1534
      2 C          62.8199   90.7309   10.7035 C.ar    1  UNL1        0.0351
      3 C          62.0019   89.4880   10.5139 C.ar    1  UNL1        0.0722
      4 CL         61.0271   89.3978    9.3772 Cl      1  UNL1       -0.0809
      5 C          62.1584   88.3353   11.4608 C.ar    1  UNL1        0.0577
      6 C          63.1331   88.4254   12.5974 C.ar    1  UNL1        0.0462
      7 C          63.9511   89.6683   12.7870 C.ar    1  UNL1        0.1602
      8 F          64.9259   89.7585   13.9237 F       1  UNL1       -0.2027
      9 O          64.3276   92.0268   13.5020 O.2     1  UNL1       -0.1498
     10 S          64.6127   92.0639   12.0298 S.O2    1  UNL1        0.0772
     11 O          64.8978   92.1010   10.5576 O.2     1  UNL1       -0.1498
     12 N          65.4308   93.3068   12.2195 N.pl3   1  UNL1       -0.1936
     13 H          65.3857   93.8007   13.0700 H       1  UNL1        0.1758
     14 C          66.3176   93.7971   11.1135 C.ar    1  UNL1        0.1786
     15 N          67.4841   93.0595   10.5260 N.ar    1  UNL1       -0.2214
     16 C          68.0810   93.9177    9.4503 C.ar    1  UNL1        0.1079
     17 C          67.2833   95.1857    9.3729 C.ar    1  UNL1        0.0588
     18 S          66.1934   95.1112   10.4009 S.2     1  UNL1       -0.0497
     19 N          61.3403   87.0924   11.2711 N.pl3   1  UNL1       -0.3319
     20 H          60.5001   86.9751   11.7706 H       1  UNL1        0.1468
     21 C          61.8024   86.0282   10.3204 C.3     1  UNL1        0.0884
     22 C          62.6708   84.9085   10.8125 C.3     1  UNL1        0.0353
     23 C          62.6812   84.5521   12.2695 C.3     1  UNL1        0.0045
     24 C          63.5496   83.4325   12.7615 C.3     1  UNL1        0.0172
     25 C          64.4076   82.6691   11.7965 C.3     1  UNL1        0.0686
     26 N          64.3972   83.0254   10.3395 N.3     1  UNL1       -0.2974
     27 C          63.5288   84.1451    9.8475 C.3     1  UNL1        0.0702
     28 H          64.1117   82.1872    9.8334 H       1  UNL1        0.1232
@<TRIPOS>BOND
     1     9    10    2
     2    10    11    2
     3    10    12    1
     4    12    14    1
     5    14    15   ar
     6    15    16   ar
     7    16    17   ar
     8    17    18   ar
     9    10     1    1
    10     1     2   ar
    11     2     3   ar
    12     3     4    1
    13     3     5   ar
    14     5    19    1
    15    19    21    1
    16    22    21    1
    17    22    23    1
    18    23    24    1
    19    24    25    1
    20    25    26    1
    21    26    27    1
    22     5     6   ar
    23     6     7   ar
    24     7     8    1
    25    18    14   ar
    26     7     1   ar
    27    27    22    1
    28    12    13    1
    29    19    20    1
    30    26    28    1
@<TRIPOS>MOLECULE
*****
 28 30 0 0 0
SMALL
GASTEIGER

@<TRIPOS>ATOM
      1 C          63.7240   86.4653   13.7413 C.ar    1  UNL1        0.1534
      2 C          63.2681   87.1999   12.5156 C.ar    1  UNL1        0.0351
      3 C          63.3301   88.6980   12.4726 C.ar    1  UNL1        0.0722
      4 CL         62.8741   89.4327   11.2469 Cl      1  UNL1       -0.0809
      5 C          63.8481   89.4614   13.6554 C.ar    1  UNL1        0.0577
      6 C          64.3040   88.7268   14.8811 C.ar    1  UNL1        0.0462
      7 C          64.2420   87.2287   14.9240 C.ar    1  UNL1        0.1602
      8 F          64.6979   86.4940   16.1498 F       1  UNL1       -0.2027
      9 O          62.1771   85.0227   13.5791 O.2     1  UNL1       -0.1498
     10 S          63.6620   84.9671   13.7843 S.O2    1  UNL1        0.0772
     11 O          65.1468   84.9115   13.9895 O.2     1  UNL1       -0.1498
     12 N          63.5999   83.4690   13.8273 N.pl3   1  UNL1       -0.1936
     13 H          63.5787   83.0019   14.6937 H       1  UNL1        0.1758
     14 C          63.5701   82.6826   12.5503 C.ar    1  UNL1        0.1786
     15 N          64.2248   83.0736   11.2586 N.ar    1  UNL1       -0.2214
     16 C          63.9397   81.9998   10.2508 C.ar    1  UNL1        0.1079
     17 C          63.1088   80.9452   10.9196 C.ar    1  UNL1        0.0588
     18 S          62.8803   81.3672   12.3409 S.2     1  UNL1       -0.0497
     19 N          63.9101   90.9596   13.6124 N.pl3   1  UNL1       -0.3319
     20 H          63.1626   91.4935   13.9664 H       1  UNL1        0.1468
     21 C          65.1110   91.6441   13.0300 C.3     1  UNL1        0.0884
     22 C          66.2750   91.9936   13.9093 C.3     1  UNL1        0.0353
     23 C          66.0415   92.4200   15.3283 C.3     1  UNL1        0.0045
     24 C          67.2054   92.7695   16.2076 C.3     1  UNL1        0.0172
     25 C          68.6028   92.6926   15.6678 C.3     1  UNL1        0.0686
     26 N          68.8363   92.2663   14.2487 N.3     1  UNL1       -0.2974
     27 C          67.6724   91.9168   13.3695 C.3     1  UNL1        0.0702
     28 H          69.4367   91.4424   14.2838 H       1  UNL1        0.1232
@<TRIPOS>BOND
     1     9    10    2
     2    10    11    2
     3    10    12    1
     4    12    14    1
     5    14    15   ar
     6    15    16   ar
     7    16    17   ar
     8    17    18   ar
     9    10     1    1
    10     1     2   ar
    11     2     3   ar
    12     3     4    1
    13     3     5   ar
    14     5    19    1
    15    19    21    1
    16    22    21    1
    17    22    23    1
    18    23    24    1
    19    24    25    1
    20    25    26    1
    21    26    27    1
    22     5     6   ar
    23     6     7   ar
    24     7     8    1
    25    18    14   ar
    26     7     1   ar
    27    27    22    1
    28    12    13    1
    29    19    20    1
    30    26    28    1
@<TRIPOS>MOLECULE
*****
 28 30 0 0 0
SMALL
GASTEIGER

@<TRIPOS>ATOM
      1 C          65.1292   91.8483   13.0523 C.ar    1  UNL1        0.1534
      2 C          64.0561   91.0832   12.3361 C.ar    1  UNL1        0.0351
      3 C          63.5783   89.7709   12.8833 C.ar    1  UNL1        0.0722
      4 CL         62.5051   89.0058   12.1671 Cl      1  UNL1       -0.0809
      5 C          64.1735   89.2238   14.1467 C.ar    1  UNL1        0.0577
      6 C          65.2466   89.9889   14.8630 C.ar    1  UNL1        0.0462
      7 C          65.7245   91.3012   14.3158 C.ar    1  UNL1        0.1602
      8 F          66.7976   92.0663   15.0320 F       1  UNL1       -0.2027
      9 O          65.9203   93.6266   13.8961 O.2     1  UNL1       -0.1498
     10 S          65.6071   93.1607   12.5051 S.O2    1  UNL1        0.0772
     11 O          65.2940   92.6948   11.1142 O.2     1  UNL1       -0.1498
     12 N          66.0851   94.4730   11.9580 N.pl3   1  UNL1       -0.1936
     13 H          65.9403   95.3017   12.4696 H       1  UNL1        0.1758
     14 C          66.7836   94.5229   10.6315 C.ar    1  UNL1        0.1786
     15 N          67.8359   93.5672   10.1527 N.ar    1  UNL1       -0.2214
     16 C          68.2550   93.9909    8.7762 C.ar    1  UNL1        0.1079
     17 C          67.4618   95.2085    8.4042 C.ar    1  UNL1        0.0588
     18 S          66.5523   95.5373    9.5509 S.2     1  UNL1       -0.0497
     19 N          63.6956   87.9114   14.6939 N.pl3   1  UNL1       -0.3319
     20 H          62.7957   87.8403   15.0869 H       1  UNL1        0.1468
     21 C          64.5887   86.7074   14.6424 C.3     1  UNL1        0.0884
     22 C          64.0181   85.3646   14.2941 C.3     1  UNL1        0.0353
     23 C          63.3773   85.1463   12.9555 C.3     1  UNL1        0.0045
     24 C          62.8067   83.8035   12.6072 C.3     1  UNL1        0.0172
     25 C          62.8769   82.6790   13.5975 C.3     1  UNL1        0.0686
     26 N          63.5177   82.8973   14.9360 N.3     1  UNL1       -0.2974
     27 C          64.0882   84.2401   15.2843 C.3     1  UNL1        0.0702
     28 H          64.2809   82.2248   15.0103 H       1  UNL1        0.1232
@<TRIPOS>BOND
     1     9    10    2
     2    10    11    2
     3    10    12    1
     4    12    14    1
     5    14    15   ar
     6    15    16   ar
     7    16    17   ar
     8    17    18   ar
     9    10     1    1
    10     1     2   ar
    11     2     3   ar
    12     3     4    1
    13     3     5   ar
    14     5    19    1
    15    19    21    1
    16    22    21    1
    17    22    23    1
    18    23    24    1
    19    24    25    1
    20    25    26    1
    21    26    27    1
    22     5     6   ar
    23     6     7   ar
    24     7     8    1
    25    18    14   ar
    26     7     1   ar
    27    27    22    1
    28    12    13    1
    29    19    20    1
    30    26    28    1
@<TRIPOS>MOLECULE
*****
 28 30 0 0 0
SMALL
GASTEIGER

@<TRIPOS>ATOM
      1 C          63.2397   85.7799   13.0798 C.ar    1  UNL1        0.1534
      2 C          62.4780   85.7885   11.7877 C.ar    1  UNL1        0.0351
      3 C          62.2689   87.0771   11.0489 C.ar    1  UNL1        0.0722
      4 CL         61.5072   87.0857    9.7567 Cl      1  UNL1       -0.0809
      5 C          62.8215   88.3571   11.6023 C.ar    1  UNL1        0.0577
      6 C          63.5832   88.3485   12.8944 C.ar    1  UNL1        0.0462
      7 C          63.7923   87.0599   13.6332 C.ar    1  UNL1        0.1602
      8 F          64.5540   87.0512   14.9254 F       1  UNL1       -0.2027
      9 O          64.5230   84.1073   12.8448 O.2     1  UNL1       -0.1498
     10 S          63.4488   84.4913   13.8186 S.O2    1  UNL1        0.0772
     11 O          62.3745   84.8753   14.7925 O.2     1  UNL1       -0.1498
     12 N          63.6579   83.2027   14.5574 N.pl3   1  UNL1       -0.1936
     13 H          64.3143   83.1560   15.2897 H       1  UNL1        0.1758
     14 C          62.8669   81.9851   14.1804 C.ar    1  UNL1        0.1786
     15 N          61.4177   81.7462   14.4846 N.ar    1  UNL1       -0.2214
     16 C          61.0415   80.4062   13.9253 C.ar    1  UNL1        0.1079
     17 C          62.2583   79.8169   13.2755 C.ar    1  UNL1        0.0588
     18 S          63.3865   80.7928   13.4332 S.2     1  UNL1       -0.0497
     19 N          62.6124   89.6457   10.8635 N.pl3   1  UNL1       -0.3319
     20 H          62.3894   89.6328    9.9047 H       1  UNL1        0.1468
     21 C          62.7432   90.9539   11.5855 C.3     1  UNL1        0.0884
     22 C          64.0933   91.5853   11.7551 C.3     1  UNL1        0.0353
     23 C          64.7617   91.5771   13.0979 C.3     1  UNL1        0.0045
     24 C          66.1117   92.2085   13.2674 C.3     1  UNL1        0.0172
     25 C          66.7933   92.8481   12.0942 C.3     1  UNL1        0.0686
     26 N          66.1249   92.8562   10.7514 N.3     1  UNL1       -0.2974
     27 C          64.7749   92.2249   10.5819 C.3     1  UNL1        0.0702
     28 H          66.7554   92.3810   10.1057 H       1  UNL1        0.1232
@<TRIPOS>BOND
     1     9    10    2
     2    10    11    2
     3    10    12    1
     4    12    14    1
     5    14    15   ar
     6    15    16   ar
     7    16    17   ar
     8    17    18   ar
     9    10     1    1
    10     1     2   ar
    11     2     3   ar
    12     3     4    1
    13     3     5   ar
    14     5    19    1
    15    19    21    1
    16    22    21    1
    17    22    23    1
    18    23    24    1
    19    24    25    1
    20    25    26    1
    21    26    27    1
    22     5     6   ar
    23     6     7   ar
    24     7     8    1
    25    18    14   ar
    26     7     1   ar
    27    27    22    1
    28    12    13    1
    29    19    20    1
    30    26    28    1
@<TRIPOS>MOLECULE
*****
 28 30 0 0 0
SMALL
GASTEIGER

@<TRIPOS>ATOM
      1 C          64.7803   91.8157   12.0077 C.ar    1  UNL1        0.1534
      2 C          64.7278   90.9555   13.2354 C.ar    1  UNL1        0.0351
      3 C          63.6751   89.8947   13.3633 C.ar    1  UNL1        0.0722
      4 CL         63.6225   89.0344   14.5911 Cl      1  UNL1       -0.0809
      5 C          62.6750   89.6940   12.2635 C.ar    1  UNL1        0.0577
      6 C          62.7276   90.5542   11.0358 C.ar    1  UNL1        0.0462
      7 C          63.7803   91.6150   10.9079 C.ar    1  UNL1        0.1602
      8 F          63.8329   92.4753    9.6802 F       1  UNL1       -0.2027
      9 O          66.1839   92.3639   10.5146 O.2     1  UNL1       -0.1498
     10 S          65.8330   92.8767   11.8798 S.O2    1  UNL1        0.0772
     11 O          65.4822   93.3895   13.2450 O.2     1  UNL1       -0.1498
     12 N          66.8857   93.9375   11.7518 N.pl3   1  UNL1       -0.1936
     13 H          67.6222   93.9813   12.4036 H       1  UNL1        0.1758
     14 C          66.8162   94.9317   10.6307 C.ar    1  UNL1        0.1786
     15 N          65.9445   96.1516   10.5868 N.ar    1  UNL1       -0.2214
     16 C          66.1958   96.8543    9.2856 C.ar    1  UNL1        0.1079
     17 C          67.2229   96.0687    8.5253 C.ar    1  UNL1        0.0588
     18 S          67.6063   94.8804    9.3567 S.2     1  UNL1       -0.0497
     19 N          61.6223   88.6331   12.3915 N.pl3   1  UNL1       -0.3319
     20 H          61.2713   88.3924   13.2793 H       1  UNL1        0.1468
     21 C          61.1044   87.9389   11.1668 C.3     1  UNL1        0.0884
     22 C          61.8459   86.7643   10.6004 C.3     1  UNL1        0.0353
     23 C          62.1908   86.7280    9.1411 C.3     1  UNL1        0.0045
     24 C          62.9322   85.5535    8.5747 C.3     1  UNL1        0.0172
     25 C          63.3287   84.4153    9.4677 C.3     1  UNL1        0.0686
     26 N          62.9838   84.4517   10.9270 N.3     1  UNL1       -0.2974
     27 C          62.2424   85.6262   11.4934 C.3     1  UNL1        0.0702
     28 H          63.8632   84.3838   11.4392 H       1  UNL1        0.1232
@<TRIPOS>BOND
     1     9    10    2
     2    10    11    2
     3    10    12    1
     4    12    14    1
     5    14    15   ar
     6    15    16   ar
     7    16    17   ar
     8    17    18   ar
     9    10     1    1
    10     1     2   ar
    11     2     3   ar
    12     3     4    1
    13     3     5   ar
    14     5    19    1
    15    19    21    1
    16    22    21    1
    17    22    23    1
    18    23    24    1
    19    24    25    1
    20    25    26    1
    21    26    27    1
    22     5     6   ar
    23     6     7   ar
    24     7     8    1
    25    18    14   ar
    26     7     1   ar
    27    27    22    1
    28    12    13    1
    29    19    20    1
    30    26    28    1
