@<TRIPOS>MOLECULE
*****
 33 37 0 0 0
SMALL
GASTEIGER

@<TRIPOS>ATOM
      1 C          60.1028   89.1429    7.4077 C.3     1  UNL1        0.0827
      2 C          60.9275   89.6879    8.5360 C.3     1  UNL1        0.0309
      3 C          61.4416   88.7666    9.6022 C.3     1  UNL1        0.0954
      4 N          61.1312   87.3004    9.5402 N.am    1  UNL1       -0.2642
      5 C          61.6454   86.3792   10.6065 C.2     1  UNL1        0.3039
      6 O          61.3349   84.9130   10.5446 O.2     1  UNL1       -0.2526
      7 N          62.4700   86.9242   11.7348 N.am    1  UNL1       -0.2901
      8 C          60.3066   86.7555    8.4120 C.3     1  UNL1        0.0954
      9 C          59.7924   87.6767    7.3457 C.3     1  UNL1        0.0309
     10 H          62.6738   87.8865   11.7755 H       1  UNL1        0.1509
     11 C          59.4869   91.5294    4.4093 C.ar    1  UNL1        0.2033
     12 N          58.1079   91.4339    4.9918 N.ar    1  UNL1       -0.0560
     13 O          58.1708   90.5283    6.1859 O.2     1  UNL1       -0.3370
     14 C          59.5886   90.0641    6.3414 C.ar    1  UNL1        0.2362
     15 N          60.4020   90.6828    5.2434 N.ar    1  UNL1       -0.1908
     16 C          60.6706   93.9336    0.7943 C.ar    1  UNL1        0.0140
     17 C          59.2475   93.4929    0.9687 C.ar    1  UNL1        0.0012
     18 C          58.8530   92.6915    2.1737 C.ar    1  UNL1        0.0032
     19 C          59.8815   92.3308    3.2043 C.ar    1  UNL1        0.0391
     20 C          61.3046   92.7716    3.0298 C.ar    1  UNL1        0.0032
     21 C          61.6991   93.5730    1.8248 C.ar    1  UNL1        0.0012
     22 O          62.4409   95.3259   -0.5009 O.co2   1  UNL1       -0.5446
     23 C          61.0652   94.7350   -0.4108 C.2     1  UNL1        0.0729
     24 O          60.0841   94.9456   -1.5256 O.co2   1  UNL1       -0.5446
     25 C          62.9842   86.0030   12.8011 C.3     1  UNL1        0.0774
     26 C          63.7434   85.7882   14.0768 C.3     1  UNL1        0.0259
     27 C          63.1157   84.6222   13.3723 C.3     1  UNL1        0.0420
     28 C          62.8291   83.1518   13.2952 C.ar    1  UNL1       -0.0208
     29 C          63.2963   82.3577   12.1116 C.ar    1  UNL1       -0.0042
     30 C          63.0098   80.8873   12.0345 C.ar    1  UNL1       -0.0003
     31 C          62.2561   80.2112   13.1412 C.ar    1  UNL1       -0.0000
     32 C          61.7890   81.0053   14.3248 C.ar    1  UNL1       -0.0003
     33 C          62.0755   82.4756   14.4019 C.ar    1  UNL1       -0.0042
@<TRIPOS>UNITY_ATOM_ATTR
22 1
charge -1
@<TRIPOS>BOND
     1    22    23   ar
     2    23    24   ar
     3    23    16    1
     4    16    17   ar
     5    17    18   ar
     6    18    19   ar
     7    19    11    1
     8    11    12   ar
     9    12    13   ar
    10    13    14   ar
    11    14     1    1
    12     1     2    1
    13     2     3    1
    14     3     4    1
    15     4     5   am
    16     5     6    2
    17     5     7   am
    18     7    25    1
    19    25    26    1
    20    26    27    1
    21    27    28    1
    22    28    29   ar
    23    29    30   ar
    24    30    31   ar
    25    31    32   ar
    26    32    33   ar
    27     4     8    1
    28     8     9    1
    29    14    15   ar
    30    19    20   ar
    31    20    21   ar
    32    21    16   ar
    33    15    11   ar
    34     9     1    1
    35    27    25    1
    36    33    28   ar
    37     7    10    1
@<TRIPOS>MOLECULE
*****
 33 37 0 0 0
SMALL
GASTEIGER

@<TRIPOS>ATOM
      1 C          61.5305   93.3703    1.8307 C.3     1  UNL1        0.0827
      2 C          62.3445   92.3623    2.5866 C.3     1  UNL1        0.0309
      3 C          61.7139   91.5634    3.6884 C.3     1  UNL1        0.0954
      4 N          60.2694   91.7725    4.0344 N.am    1  UNL1       -0.2642
      5 C          59.6388   90.9736    5.1363 C.2     1  UNL1        0.3039
      6 O          58.1943   91.1827    5.4823 O.2     1  UNL1       -0.2526
      7 N          60.4528   89.9656    5.8922 N.am    1  UNL1       -0.2901
      8 C          59.4555   92.7805    3.2785 C.3     1  UNL1        0.0954
      9 C          60.0860   93.5794    2.1767 C.3     1  UNL1        0.0309
     10 H          61.4009   89.8283    5.6652 H       1  UNL1        0.1509
     11 C          63.2673   94.7667   -1.3472 C.ar    1  UNL1        0.2033
     12 N          62.9953   96.0306   -0.5865 N.ar    1  UNL1       -0.0560
     13 O          62.3116   95.6613    0.6966 O.2     1  UNL1       -0.3370
     14 C          62.1610   94.1693    0.7288 C.ar    1  UNL1        0.2362
     15 N          62.7517   93.6164   -0.5343 N.ar    1  UNL1       -0.1908
     16 C          65.2772   94.4771   -5.3630 C.ar    1  UNL1        0.0140
     17 C          65.2894   95.7743   -4.6100 C.ar    1  UNL1        0.0012
     18 C          64.6195   95.8708   -3.2714 C.ar    1  UNL1        0.0032
     19 C          63.9373   94.6702   -2.6858 C.ar    1  UNL1        0.0391
     20 C          63.9250   93.3730   -3.4388 C.ar    1  UNL1        0.0032
     21 C          64.5950   93.2764   -4.7774 C.ar    1  UNL1        0.0012
     22 O          66.0870   95.6025   -7.5602 O.co2   1  UNL1       -0.5446
     23 C          65.9471   94.3805   -6.7016 C.2     1  UNL1        0.0729
     24 O          66.4772   93.0620   -7.1816 O.co2   1  UNL1       -0.5446
     25 C          59.8223   89.1666    6.9941 C.3     1  UNL1        0.0774
     26 C          58.6016   88.5782    7.6374 C.3     1  UNL1        0.0259
     27 C          59.9508   88.3712    8.2593 C.3     1  UNL1        0.0420
     28 C          60.8039   87.7925    9.3489 C.ar    1  UNL1       -0.0208
     29 C          60.8976   86.3050    9.5181 C.ar    1  UNL1       -0.0042
     30 C          61.7508   85.7263   10.6077 C.ar    1  UNL1       -0.0003
     31 C          62.5102   86.6351   11.5281 C.ar    1  UNL1       -0.0000
     32 C          62.4166   88.1226   11.3590 C.ar    1  UNL1       -0.0003
     33 C          61.5635   88.7013   10.2694 C.ar    1  UNL1       -0.0042
@<TRIPOS>UNITY_ATOM_ATTR
22 1
charge -1
@<TRIPOS>BOND
     1    22    23   ar
     2    23    24   ar
     3    23    16    1
     4    16    17   ar
     5    17    18   ar
     6    18    19   ar
     7    19    11    1
     8    11    12   ar
     9    12    13   ar
    10    13    14   ar
    11    14     1    1
    12     1     2    1
    13     2     3    1
    14     3     4    1
    15     4     5   am
    16     5     6    2
    17     5     7   am
    18     7    25    1
    19    25    26    1
    20    26    27    1
    21    27    28    1
    22    28    29   ar
    23    29    30   ar
    24    30    31   ar
    25    31    32   ar
    26    32    33   ar
    27     4     8    1
    28     8     9    1
    29    14    15   ar
    30    19    20   ar
    31    20    21   ar
    32    21    16   ar
    33    15    11   ar
    34     9     1    1
    35    27    25    1
    36    33    28   ar
    37     7    10    1
@<TRIPOS>MOLECULE
*****
 33 37 0 0 0
SMALL
GASTEIGER

@<TRIPOS>ATOM
      1 C          60.2904   92.5042    2.7160 C.3     1  UNL1        0.0827
      2 C          61.7785   92.5200    2.5278 C.3     1  UNL1        0.0309
      3 C          62.3754   93.1921    1.3271 C.3     1  UNL1        0.0954
      4 N          61.4844   93.8483    0.3145 N.am    1  UNL1       -0.2642
      5 C          62.0814   94.5204   -0.8864 C.2     1  UNL1        0.3039
      6 O          61.1904   95.1767   -1.8989 O.2     1  UNL1       -0.2526
      7 N          63.5695   94.5362   -1.0746 N.am    1  UNL1       -0.2901
      8 C          59.9964   93.8325    0.5027 C.3     1  UNL1        0.0954
      9 C          59.3994   93.1605    1.7035 C.3     1  UNL1        0.0309
     10 H          64.1543   94.1055   -0.4099 H       1  UNL1        0.1509
     11 C          59.4420   90.4971    5.9281 C.ar    1  UNL1        0.2033
     12 N          58.1074   91.0987    5.6012 N.ar    1  UNL1       -0.0560
     13 O          58.2627   91.9238    4.3582 O.2     1  UNL1       -0.3370
     14 C          59.6934   91.8322    3.9168 C.ar    1  UNL1        0.2362
     15 N          60.4222   90.9504    4.8871 N.ar    1  UNL1       -0.1908
     16 C          60.3464   87.8052    9.4188 C.ar    1  UNL1        0.0140
     17 C          60.7261   89.2553    9.4719 C.ar    1  UNL1        0.0012
     18 C          60.4246   90.1526    8.3083 C.ar    1  UNL1        0.0032
     19 C          59.7435   89.5998    7.0917 C.ar    1  UNL1        0.0391
     20 C          59.3638   88.1497    7.0386 C.ar    1  UNL1        0.0032
     21 C          59.6652   87.2523    8.2022 C.ar    1  UNL1        0.0012
     22 O          61.2262   85.5439   10.3476 O.co2   1  UNL1       -0.5446
     23 C          60.6479   86.9078   10.5824 C.2     1  UNL1        0.0729
     24 O          60.3711   87.3745   11.9808 O.co2   1  UNL1       -0.5446
     25 C          64.1665   95.2083   -2.2753 C.3     1  UNL1        0.0774
     26 C          64.6783   96.4459   -2.9509 C.3     1  UNL1        0.0259
     27 C          64.6889   95.1348   -3.6795 C.3     1  UNL1        0.0420
     28 C          64.9965   94.3353   -4.9109 C.ar    1  UNL1       -0.0208
     29 C          65.5599   95.0138   -6.1242 C.ar    1  UNL1       -0.0042
     30 C          65.8676   94.2144   -7.3556 C.ar    1  UNL1       -0.0003
     31 C          65.6118   92.7365   -7.3736 C.ar    1  UNL1       -0.0000
     32 C          65.0484   92.0580   -6.1603 C.ar    1  UNL1       -0.0003
     33 C          64.7408   92.8574   -4.9289 C.ar    1  UNL1       -0.0042
@<TRIPOS>UNITY_ATOM_ATTR
22 1
charge -1
@<TRIPOS>BOND
     1    22    23   ar
     2    23    24   ar
     3    23    16    1
     4    16    17   ar
     5    17    18   ar
     6    18    19   ar
     7    19    11    1
     8    11    12   ar
     9    12    13   ar
    10    13    14   ar
    11    14     1    1
    12     1     2    1
    13     2     3    1
    14     3     4    1
    15     4     5   am
    16     5     6    2
    17     5     7   am
    18     7    25    1
    19    25    26    1
    20    26    27    1
    21    27    28    1
    22    28    29   ar
    23    29    30   ar
    24    30    31   ar
    25    31    32   ar
    26    32    33   ar
    27     4     8    1
    28     8     9    1
    29    14    15   ar
    30    19    20   ar
    31    20    21   ar
    32    21    16   ar
    33    15    11   ar
    34     9     1    1
    35    27    25    1
    36    33    28   ar
    37     7    10    1
@<TRIPOS>MOLECULE
*****
 33 37 0 0 0
SMALL
GASTEIGER

@<TRIPOS>ATOM
      1 C          59.8814   90.6272    5.3641 C.3     1  UNL1        0.0827
      2 C          61.2521   90.8122    4.7836 C.3     1  UNL1        0.0309
      3 C          61.4787   91.8299    3.7053 C.3     1  UNL1        0.0954
      4 N          60.3347   92.6626    3.2074 N.am    1  UNL1       -0.2642
      5 C          60.5614   93.6803    2.1290 C.2     1  UNL1        0.3039
      6 O          59.4174   94.5130    1.6312 O.2     1  UNL1       -0.2526
      7 N          61.9321   93.8654    1.5485 N.am    1  UNL1       -0.2901
      8 C          58.9641   92.4776    3.7879 C.3     1  UNL1        0.0954
      9 C          58.7374   91.4599    4.8663 C.3     1  UNL1        0.0309
     10 H          62.6829   93.3188    1.8753 H       1  UNL1        0.1509
     11 C          60.0401   88.0426    8.2555 C.ar    1  UNL1        0.2033
     12 N          58.5719   88.0442    7.9484 N.ar    1  UNL1       -0.0560
     13 O          58.3337   89.0126    6.8279 O.2     1  UNL1       -0.3370
     14 C          59.6548   89.6095    6.4425 C.ar    1  UNL1        0.2362
     15 N          60.7093   89.0100    7.3248 N.ar    1  UNL1       -0.1908
     16 C          62.0790   85.5697   11.4143 C.ar    1  UNL1        0.0140
     17 C          62.3058   85.2673    9.9627 C.ar    1  UNL1        0.0012
     18 C          61.6261   86.0916    8.9098 C.ar    1  UNL1        0.0032
     19 C          60.7197   87.2183    9.3084 C.ar    1  UNL1        0.0391
     20 C          60.4929   87.5207   10.7600 C.ar    1  UNL1        0.0032
     21 C          61.1726   86.6964   11.8129 C.ar    1  UNL1        0.0012
     22 O          63.8676   83.8096   12.0872 O.co2   1  UNL1       -0.5446
     23 C          62.7586   84.7454   12.4672 C.2     1  UNL1        0.0729
     24 O          62.3293   84.8570   13.9001 O.co2   1  UNL1       -0.5446
     25 C          62.1588   94.8831    0.4701 C.3     1  UNL1        0.0774
     26 C          62.0322   96.2893   -0.0363 C.3     1  UNL1        0.0259
     27 C          62.6779   95.2396   -0.8913 C.3     1  UNL1        0.0420
     28 C          63.3505   94.8393   -2.1709 C.ar    1  UNL1       -0.0208
     29 C          64.1052   95.8583   -2.9721 C.ar    1  UNL1       -0.0042
     30 C          64.7777   95.4580   -4.2518 C.ar    1  UNL1       -0.0003
     31 C          64.6955   94.0388   -4.7302 C.ar    1  UNL1       -0.0000
     32 C          63.9407   93.0198   -3.9289 C.ar    1  UNL1       -0.0003
     33 C          63.2682   93.4200   -2.6494 C.ar    1  UNL1       -0.0042
@<TRIPOS>UNITY_ATOM_ATTR
22 1
charge -1
@<TRIPOS>BOND
     1    22    23   ar
     2    23    24   ar
     3    23    16    1
     4    16    17   ar
     5    17    18   ar
     6    18    19   ar
     7    19    11    1
     8    11    12   ar
     9    12    13   ar
    10    13    14   ar
    11    14     1    1
    12     1     2    1
    13     2     3    1
    14     3     4    1
    15     4     5   am
    16     5     6    2
    17     5     7   am
    18     7    25    1
    19    25    26    1
    20    26    27    1
    21    27    28    1
    22    28    29   ar
    23    29    30   ar
    24    30    31   ar
    25    31    32   ar
    26    32    33   ar
    27     4     8    1
    28     8     9    1
    29    14    15   ar
    30    19    20   ar
    31    20    21   ar
    32    21    16   ar
    33    15    11   ar
    34     9     1    1
    35    27    25    1
    36    33    28   ar
    37     7    10    1
@<TRIPOS>MOLECULE
*****
 33 37 0 0 0
SMALL
GASTEIGER

@<TRIPOS>ATOM
      1 C          59.8849   90.6127    5.3543 C.3     1  UNL1        0.0827
      2 C          58.7294   91.4016    4.8135 C.3     1  UNL1        0.0309
      3 C          58.9539   92.4130    3.7289 C.3     1  UNL1        0.0954
      4 N          60.3340   92.6356    3.1850 N.am    1  UNL1       -0.2642
      5 C          60.5586   93.6471    2.1003 C.2     1  UNL1        0.3039
      6 O          61.9387   93.8697    1.5564 O.2     1  UNL1       -0.2526
      7 N          59.4030   94.4359    1.5595 N.am    1  UNL1       -0.2901
      8 C          61.4895   91.8468    3.7258 C.3     1  UNL1        0.0954
      9 C          61.2650   90.8353    4.8105 C.3     1  UNL1        0.0309
     10 H          58.4973   94.2898    1.9165 H       1  UNL1        0.1509
     11 C          60.0501   88.0412    8.2570 C.ar    1  UNL1        0.2033
     12 N          58.5799   88.0484    7.9594 N.ar    1  UNL1       -0.0560
     13 O          58.3391   89.0125    6.8358 O.2     1  UNL1       -0.3370
     14 C          59.6604   89.6013    6.4390 C.ar    1  UNL1        0.2362
     15 N          60.7178   89.0010    7.3174 N.ar    1  UNL1       -0.1908
     16 C          62.0976   85.5738   11.4144 C.ar    1  UNL1        0.0140
     17 C          61.1916   86.7006   11.8136 C.ar    1  UNL1        0.0012
     18 C          60.5091   87.5231   10.7612 C.ar    1  UNL1        0.0032
     19 C          60.7326   87.2187    9.3095 C.ar    1  UNL1        0.0391
     20 C          61.6386   86.0920    8.9103 C.ar    1  UNL1        0.0032
     21 C          62.3211   85.2695    9.9628 C.ar    1  UNL1        0.0012
     22 O          62.3418   84.8509   13.8979 O.co2   1  UNL1       -0.5446
     23 C          62.7802   84.7513   12.4669 C.2     1  UNL1        0.0729
     24 O          63.9011   83.8293   12.0883 O.co2   1  UNL1       -0.5446
     25 C          59.6276   95.4474    0.4748 C.3     1  UNL1        0.0774
     26 C          59.5189   96.8552   -0.0313 C.3     1  UNL1        0.0259
     27 C          60.1251   95.7914   -0.8978 C.3     1  UNL1        0.0420
     28 C          60.7623   95.3759   -2.1906 C.ar    1  UNL1       -0.0208
     29 C          60.5138   96.1700   -3.4386 C.ar    1  UNL1       -0.0042
     30 C          61.1510   95.7545   -4.7314 C.ar    1  UNL1       -0.0003
     31 C          62.0368   94.5449   -4.7761 C.ar    1  UNL1       -0.0000
     32 C          62.2854   93.7507   -3.5281 C.ar    1  UNL1       -0.0003
     33 C          61.6481   94.1662   -2.2354 C.ar    1  UNL1       -0.0042
@<TRIPOS>UNITY_ATOM_ATTR
22 1
charge -1
@<TRIPOS>BOND
     1    22    23   ar
     2    23    24   ar
     3    23    16    1
     4    16    17   ar
     5    17    18   ar
     6    18    19   ar
     7    19    11    1
     8    11    12   ar
     9    12    13   ar
    10    13    14   ar
    11    14     1    1
    12     1     2    1
    13     2     3    1
    14     3     4    1
    15     4     5   am
    16     5     6    2
    17     5     7   am
    18     7    25    1
    19    25    26    1
    20    26    27    1
    21    27    28    1
    22    28    29   ar
    23    29    30   ar
    24    30    31   ar
    25    31    32   ar
    26    32    33   ar
    27     4     8    1
    28     8     9    1
    29    14    15   ar
    30    19    20   ar
    31    20    21   ar
    32    21    16   ar
    33    15    11   ar
    34     9     1    1
    35    27    25    1
    36    33    28   ar
    37     7    10    1
@<TRIPOS>MOLECULE
*****
 33 37 0 0 0
SMALL
GASTEIGER

@<TRIPOS>ATOM
      1 C          60.2670   92.5592    2.6703 C.3     1  UNL1        0.0827
      2 C          59.3855   92.9746    1.5300 C.3     1  UNL1        0.0309
      3 C          59.9797   93.6524    0.3311 C.3     1  UNL1        0.0954
      4 N          61.4554   93.9149    0.2725 N.am    1  UNL1       -0.2642
      5 C          62.0497   94.5928   -0.9264 C.2     1  UNL1        0.3039
      6 O          63.5254   94.8552   -0.9850 O.2     1  UNL1       -0.2526
      7 N          61.1682   95.0082   -2.0668 N.am    1  UNL1       -0.2901
      8 C          62.3369   93.4995    1.4128 C.3     1  UNL1        0.0954
      9 C          61.7427   92.8216    2.6118 C.3     1  UNL1        0.0309
     10 H          60.1996   94.8359   -2.0283 H       1  UNL1        0.1509
     11 C          59.4259   90.5350    5.8736 C.ar    1  UNL1        0.2033
     12 N          58.0913   91.1413    5.5550 N.ar    1  UNL1       -0.0560
     13 O          58.2440   91.9733    4.3163 O.2     1  UNL1       -0.3370
     14 C          59.6729   91.8813    3.8693 C.ar    1  UNL1        0.2362
     15 N          60.4033   90.9924    4.8318 N.ar    1  UNL1       -0.1908
     16 C          60.3371   87.8208    9.3453 C.ar    1  UNL1        0.0140
     17 C          59.5998   87.2901    8.1517 C.ar    1  UNL1        0.0012
     18 C          59.2961   88.1948    6.9945 C.ar    1  UNL1        0.0032
     19 C          59.7296   89.6303    7.0308 C.ar    1  UNL1        0.0391
     20 C          60.4669   90.1610    8.2244 C.ar    1  UNL1        0.0032
     21 C          60.7707   89.2563    9.3816 C.ar    1  UNL1        0.0012
     22 O          60.3965   87.3857   11.9059 O.co2   1  UNL1       -0.5446
     23 C          60.6409   86.9161   10.5025 C.2     1  UNL1        0.0729
     24 O          61.1889   85.5417   10.2563 O.co2   1  UNL1       -0.5446
     25 C          61.7623   95.6860   -3.2657 C.3     1  UNL1        0.0774
     26 C          61.8159   96.8560   -4.2029 C.3     1  UNL1        0.0259
     27 C          62.7379   95.6902   -4.4051 C.3     1  UNL1        0.0420
     28 C          63.8334   95.0196   -5.1797 C.ar    1  UNL1       -0.0208
     29 C          63.8260   93.5296   -5.3526 C.ar    1  UNL1       -0.0042
     30 C          64.9216   92.8589   -6.1272 C.ar    1  UNL1       -0.0003
     31 C          66.0245   93.6783   -6.7289 C.ar    1  UNL1       -0.0000
     32 C          66.0319   95.1683   -6.5561 C.ar    1  UNL1       -0.0003
     33 C          64.9364   95.8389   -5.7815 C.ar    1  UNL1       -0.0042
@<TRIPOS>UNITY_ATOM_ATTR
22 1
charge -1
@<TRIPOS>BOND
     1    22    23   ar
     2    23    24   ar
     3    23    16    1
     4    16    17   ar
     5    17    18   ar
     6    18    19   ar
     7    19    11    1
     8    11    12   ar
     9    12    13   ar
    10    13    14   ar
    11    14     1    1
    12     1     2    1
    13     2     3    1
    14     3     4    1
    15     4     5   am
    16     5     6    2
    17     5     7   am
    18     7    25    1
    19    25    26    1
    20    26    27    1
    21    27    28    1
    22    28    29   ar
    23    29    30   ar
    24    30    31   ar
    25    31    32   ar
    26    32    33   ar
    27     4     8    1
    28     8     9    1
    29    14    15   ar
    30    19    20   ar
    31    20    21   ar
    32    21    16   ar
    33    15    11   ar
    34     9     1    1
    35    27    25    1
    36    33    28   ar
    37     7    10    1
