@<TRIPOS>MOLECULE
*****
 52 57 0 0 0
SMALL
GASTEIGER

@<TRIPOS>ATOM
      1 C          60.1322   90.2164    5.9069 C.ar    1  UNL1        0.1140
      2 C          61.4208   90.4956    5.1916 C.ar    1  UNL1        0.0233
      3 C          61.1243   91.4155    4.0445 C.ar    1  UNL1        0.0186
      4 C          62.0044   92.0270    2.9951 C.ar    1  UNL1        0.0162
      5 C          61.4127   92.9280    1.9519 C.ar    1  UNL1        0.0506
      6 C          59.9409   93.2173    1.9583 C.ar    1  UNL1        0.0162
      7 C          59.0608   92.6058    3.0077 C.ar    1  UNL1        0.0185
      8 C          59.6525   91.7049    4.0509 C.ar    1  UNL1        0.0601
      9 N          59.0394   90.9638    5.2019 N.ar    1  UNL1       -0.3216
     10 C          57.5881   90.9692    5.5812 C.3     1  UNL1        0.1306
     11 N          61.0979   89.1818    8.0857 N.am    1  UNL1       -0.2902
     12 C          59.9657   89.3431    7.1151 C.2     1  UNL1        0.2623
     13 O          58.6670   88.6312    7.3527 O.2     1  UNL1       -0.2685
     14 H          61.9503   89.6491    7.9297 H       1  UNL1        0.1505
     15 C          60.9314   88.3086    9.2939 C.3     1  UNL1        0.1720
     16 C          61.6616   87.0011    9.3806 C.ar    1  UNL1        0.0043
     17 C          62.1365   86.3229    8.1299 C.ar    1  UNL1       -0.0022
     18 C          62.8667   85.0154    8.2166 C.ar    1  UNL1       -0.0003
     19 C          63.1218   84.3862    9.5542 C.ar    1  UNL1       -0.0000
     20 C          62.6468   85.0644   10.8049 C.ar    1  UNL1       -0.0003
     21 C          61.9167   86.3719   10.7182 C.ar    1  UNL1       -0.0022
     22 C          59.5529   90.3044   12.4349 C.3     1  UNL1        0.1152
     23 N          60.4495   89.8703   11.3135 N.am    1  UNL1       -0.2721
     24 C          60.0348   88.7427   10.4153 C.2     1  UNL1        0.2481
     25 O          58.7236   88.0494   10.6385 O.2     1  UNL1       -0.2727
     26 C          61.7607   90.5636   11.0902 C.3     1  UNL1        0.1202
     27 C          62.8467   90.4639   12.1201 C.ar    1  UNL1       -0.0023
     28 C          62.9869   89.2184   12.9442 C.ar    1  UNL1       -0.0026
     29 C          64.0729   89.1187   13.9741 C.ar    1  UNL1       -0.0003
     30 C          65.0188   90.2646   14.1799 C.ar    1  UNL1       -0.0000
     31 C          64.8786   91.5101   13.3559 C.ar    1  UNL1       -0.0003
     32 C          63.7926   91.6097   12.3260 C.ar    1  UNL1       -0.0026
     33 N          62.2928   93.5396    0.9024 N.am    1  UNL1       -0.2804
     34 C          62.5346   95.0199    0.8959 C.2     1  UNL1        0.2495
     35 O          61.8962   95.8887    1.9389 O.2     1  UNL1       -0.2698
     36 H          62.7117   92.9693    0.2178 H       1  UNL1        0.1552
     37 C          63.4146   95.6315   -0.1536 C.ar    1  UNL1        0.0537
     38 C          64.7977   96.0905    0.2018 C.ar    1  UNL1        0.0045
     39 C          65.6778   96.7021   -0.8478 C.ar    1  UNL1        0.0001
     40 C          65.1747   96.8548   -2.2526 C.ar    1  UNL1        0.0000
     41 C          63.7915   96.3958   -2.6079 C.ar    1  UNL1        0.0001
     42 C          62.9115   95.7842   -1.5585 C.ar    1  UNL1        0.0044
     43 C          61.5283   95.3253   -1.9138 C.ar    1  UNL1        0.0001
     44 C          60.3485   96.2049   -1.6235 C.ar    1  UNL1       -0.0001
     45 C          58.9654   95.7460   -1.9789 C.ar    1  UNL1        0.0039
     46 C          58.7620   94.4074   -2.6245 C.ar    1  UNL1        0.0714
     47 C          59.9418   93.5277   -2.9148 C.ar    1  UNL1        0.0039
     48 C          61.3250   93.9867   -2.5594 C.ar    1  UNL1       -0.0001
     49 C          57.3789   93.9485   -2.9798 C.3     1  UNL1        0.4186
     50 F          55.9957   93.4896   -3.3352 F       1  UNL1       -0.1659
     51 F          57.9546   92.7470   -3.6689 F       1  UNL1       -0.1659
     52 F          56.8032   95.1500   -2.2907 F       1  UNL1       -0.1659
@<TRIPOS>BOND
     1    22    23    1
     2    23    26    1
     3    26    27    1
     4    27    28   ar
     5    28    29   ar
     6    29    30   ar
     7    30    31   ar
     8    31    32   ar
     9    23    24   am
    10    24    25    2
    11    24    15    1
    12    15    11    1
    13    11    12   am
    14    12    13    2
    15    12     1    1
    16     1     2   ar
    17     2     3   ar
    18     3     4   ar
    19     4     5   ar
    20     5    33    1
    21    33    34   am
    22    34    35    2
    23    34    37    1
    24    37    38   ar
    25    38    39   ar
    26    39    40   ar
    27    40    41   ar
    28    41    42   ar
    29    42    43    1
    30    43    44   ar
    31    44    45   ar
    32    45    46   ar
    33    46    49    1
    34    49    50    1
    35    49    51    1
    36    49    52    1
    37    46    47   ar
    38    47    48   ar
    39     5     6   ar
    40     6     7   ar
    41     7     8   ar
    42     8     9   ar
    43     9    10    1
    44    15    16    1
    45    16    17   ar
    46    17    18   ar
    47    18    19   ar
    48    19    20   ar
    49    20    21   ar
    50    32    27   ar
    51     9     1   ar
    52    21    16   ar
    53     8     3   ar
    54    42    37   ar
    55    48    43   ar
    56    11    14    1
    57    33    36    1
@<TRIPOS>MOLECULE
*****
 52 57 0 0 0
SMALL
GASTEIGER

@<TRIPOS>ATOM
      1 C          59.7685   92.0842    3.8736 C.ar    1  UNL1        0.1140
      2 C          60.9006   91.3707    4.5513 C.ar    1  UNL1        0.0233
      3 C          60.3191   90.4702    5.6006 C.ar    1  UNL1        0.0186
      4 C          60.9549   89.5276    6.5789 C.ar    1  UNL1        0.0162
      5 C          60.0994   88.7420    7.5279 C.ar    1  UNL1        0.0506
      6 C          58.6079   88.8990    7.4987 C.ar    1  UNL1        0.0162
      7 C          57.9720   89.8416    6.5204 C.ar    1  UNL1        0.0185
      8 C          58.8276   90.6272    5.5713 C.ar    1  UNL1        0.0601
      9 N          58.4874   91.6247    4.5040 N.ar    1  UNL1       -0.3216
     10 C          57.1081   92.0824    4.1323 C.3     1  UNL1        0.1306
     11 N          59.7710   92.6347    1.3345 N.am    1  UNL1       -0.2902
     12 C          59.8954   93.0821    2.7608 C.2     1  UNL1        0.2623
     13 O          60.1466   94.5272    3.0743 O.2     1  UNL1       -0.2685
     14 H          59.6061   91.6862    1.1287 H       1  UNL1        0.1505
     15 C          59.8978   93.6326    0.2217 C.3     1  UNL1        0.1720
     16 C          61.1465   93.6756   -0.6083 C.ar    1  UNL1        0.0043
     17 C          62.4820   93.8422    0.0540 C.ar    1  UNL1       -0.0022
     18 C          63.7307   93.8852   -0.7761 C.ar    1  UNL1       -0.0003
     19 C          63.6439   93.7616   -2.2684 C.ar    1  UNL1       -0.0000
     20 C          62.3083   93.5950   -2.9308 C.ar    1  UNL1       -0.0003
     21 C          61.0597   93.5520   -2.1007 C.ar    1  UNL1       -0.0022
     22 C          56.4454   95.0762   -1.0997 C.3     1  UNL1        0.1152
     23 N          57.5672   94.1214   -0.8170 N.am    1  UNL1       -0.2721
     24 C          58.7760   94.5873   -0.0610 C.2     1  UNL1        0.2481
     25 O          58.8631   96.0080    0.4123 O.2     1  UNL1       -0.2727
     26 C          57.4801   92.7007   -1.2903 C.3     1  UNL1        0.1202
     27 C          57.1486   92.4066   -2.7233 C.ar    1  UNL1       -0.0023
     28 C          56.0807   91.4071   -3.0562 C.ar    1  UNL1       -0.0026
     29 C          55.7492   91.1130   -4.4892 C.ar    1  UNL1       -0.0003
     30 C          56.4857   91.8183   -5.5894 C.ar    1  UNL1       -0.0000
     31 C          57.5535   92.8177   -5.2565 C.ar    1  UNL1       -0.0003
     32 C          57.8850   93.1119   -3.8235 C.ar    1  UNL1       -0.0026
     33 N          60.7352   87.7993    8.5062 N.am    1  UNL1       -0.2804
     34 C          61.0119   88.2495    9.9101 C.2     1  UNL1        0.2495
     35 O          60.6526   89.6423   10.3356 O.2     1  UNL1       -0.2698
     36 H          60.9710   86.8852    8.2270 H       1  UNL1        0.1552
     37 C          61.6477   87.3069   10.8884 C.ar    1  UNL1        0.0537
     38 C          61.1314   85.9050   11.0232 C.ar    1  UNL1        0.0045
     39 C          61.7673   84.9624   12.0016 C.ar    1  UNL1        0.0001
     40 C          62.9195   85.4217   12.8452 C.ar    1  UNL1        0.0000
     41 C          63.4358   86.8236   12.7104 C.ar    1  UNL1        0.0001
     42 C          62.7999   87.7661   11.7320 C.ar    1  UNL1        0.0044
     43 C          63.3162   89.1680   11.5972 C.ar    1  UNL1        0.0001
     44 C          63.8501   89.8895   12.7991 C.ar    1  UNL1       -0.0001
     45 C          64.3664   91.2914   12.6643 C.ar    1  UNL1        0.0039
     46 C          64.3488   91.9718   11.3276 C.ar    1  UNL1        0.0714
     47 C          63.8149   91.2503   10.1257 C.ar    1  UNL1        0.0039
     48 C          63.2986   89.8485   10.2605 C.ar    1  UNL1       -0.0001
     49 C          64.8651   93.3737   11.1928 C.3     1  UNL1        0.4186
     50 F          65.3814   94.7755   11.0580 F       1  UNL1       -0.1659
     51 F          64.3668   93.4212    9.7788 F       1  UNL1       -0.1659
     52 F          65.3634   93.3261   12.6069 F       1  UNL1       -0.1659
@<TRIPOS>BOND
     1    22    23    1
     2    23    26    1
     3    26    27    1
     4    27    28   ar
     5    28    29   ar
     6    29    30   ar
     7    30    31   ar
     8    31    32   ar
     9    23    24   am
    10    24    25    2
    11    24    15    1
    12    15    11    1
    13    11    12   am
    14    12    13    2
    15    12     1    1
    16     1     2   ar
    17     2     3   ar
    18     3     4   ar
    19     4     5   ar
    20     5    33    1
    21    33    34   am
    22    34    35    2
    23    34    37    1
    24    37    38   ar
    25    38    39   ar
    26    39    40   ar
    27    40    41   ar
    28    41    42   ar
    29    42    43    1
    30    43    44   ar
    31    44    45   ar
    32    45    46   ar
    33    46    49    1
    34    49    50    1
    35    49    51    1
    36    49    52    1
    37    46    47   ar
    38    47    48   ar
    39     5     6   ar
    40     6     7   ar
    41     7     8   ar
    42     8     9   ar
    43     9    10    1
    44    15    16    1
    45    16    17   ar
    46    17    18   ar
    47    18    19   ar
    48    19    20   ar
    49    20    21   ar
    50    32    27   ar
    51     9     1   ar
    52    21    16   ar
    53     8     3   ar
    54    42    37   ar
    55    48    43   ar
    56    11    14    1
    57    33    36    1
@<TRIPOS>MOLECULE
*****
 52 57 0 0 0
SMALL
GASTEIGER

@<TRIPOS>ATOM
      1 C          59.6467   91.9116    4.3571 C.ar    1  UNL1        0.1140
      2 C          60.8173   91.2906    5.0600 C.ar    1  UNL1        0.0233
      3 C          60.2893   90.2876    6.0425 C.ar    1  UNL1        0.0186
      4 C          60.9782   89.3735    7.0119 C.ar    1  UNL1        0.0162
      5 C          60.1701   88.4604    7.8855 C.ar    1  UNL1        0.0506
      6 C          58.6731   88.4615    7.7898 C.ar    1  UNL1        0.0162
      7 C          57.9843   89.3756    6.8204 C.ar    1  UNL1        0.0185
      8 C          58.7923   90.2887    5.9467 C.ar    1  UNL1        0.0601
      9 N          58.3952   91.2923    4.9051 N.ar    1  UNL1       -0.3216
     10 C          56.9928   91.6193    4.4852 C.3     1  UNL1        0.1306
     11 N          59.7876   92.5707    1.8479 N.am    1  UNL1       -0.2902
     12 C          59.7156   92.9665    3.2929 C.2     1  UNL1        0.2623
     13 O          59.7123   94.4173    3.6738 O.2     1  UNL1       -0.2685
     14 H          59.7897   91.6184    1.5979 H       1  UNL1        0.1505
     15 C          59.8564   93.6256    0.7838 C.3     1  UNL1        0.1720
     16 C          58.6720   93.8758   -0.1020 C.ar    1  UNL1        0.0043
     17 C          57.8629   92.7220   -0.6161 C.ar    1  UNL1       -0.0022
     18 C          56.6785   92.9722   -1.5019 C.ar    1  UNL1       -0.0003
     19 C          56.3032   94.3761   -1.8736 C.ar    1  UNL1       -0.0000
     20 C          57.1123   95.5298   -1.3595 C.ar    1  UNL1       -0.0003
     21 C          58.2966   95.2797   -0.4737 C.ar    1  UNL1       -0.0022
     22 C          63.2015   95.0544   -0.8032 C.3     1  UNL1        0.1152
     23 N          61.9483   94.2496   -0.6249 N.am    1  UNL1       -0.2721
     24 C          61.1096   94.4304    0.6055 C.2     1  UNL1        0.2481
     25 O          61.5240   95.4159    1.6576 O.2     1  UNL1       -0.2727
     26 C          61.5339   93.2641   -1.6770 C.3     1  UNL1        0.1202
     27 C          61.2390   93.7342   -3.0705 C.ar    1  UNL1       -0.0023
     28 C          59.8253   94.0215   -3.4817 C.ar    1  UNL1       -0.0026
     29 C          59.5303   94.4917   -4.8752 C.ar    1  UNL1       -0.0003
     30 C          60.6491   94.6745   -5.8576 C.ar    1  UNL1       -0.0000
     31 C          62.0627   94.3872   -5.4464 C.ar    1  UNL1       -0.0003
     32 C          62.3576   93.9171   -4.0529 C.ar    1  UNL1       -0.0026
     33 N          60.8589   87.5462    8.8550 N.am    1  UNL1       -0.2804
     34 C          61.1159   88.0005   10.2612 C.2     1  UNL1        0.2495
     35 O          60.6839   89.3690   10.6981 O.2     1  UNL1       -0.2698
     36 H          61.1424   86.6481    8.5683 H       1  UNL1        0.1552
     37 C          61.8047   87.0864   11.2307 C.ar    1  UNL1        0.0537
     38 C          61.3301   85.6731   11.3957 C.ar    1  UNL1        0.0045
     39 C          62.0190   84.7589   12.3652 C.ar    1  UNL1        0.0001
     40 C          63.1824   85.2582   13.1697 C.ar    1  UNL1        0.0000
     41 C          63.6570   86.6715   13.0047 C.ar    1  UNL1        0.0001
     42 C          62.9681   87.5856   12.0352 C.ar    1  UNL1        0.0044
     43 C          63.4427   88.9990   11.8702 C.ar    1  UNL1        0.0001
     44 C          64.0010   89.7447   13.0459 C.ar    1  UNL1       -0.0001
     45 C          64.4756   91.1581   12.8809 C.ar    1  UNL1        0.0039
     46 C          64.3919   91.8257   11.5403 C.ar    1  UNL1        0.0714
     47 C          63.8336   91.0799   10.3646 C.ar    1  UNL1        0.0039
     48 C          63.3590   89.6665   10.5295 C.ar    1  UNL1       -0.0001
     49 C          64.8665   93.2390   11.3753 C.3     1  UNL1        0.4186
     50 F          65.3410   94.6524   11.2103 F       1  UNL1       -0.1659
     51 F          65.3871   93.2284   12.7820 F       1  UNL1       -0.1659
     52 F          64.3459   93.2496    9.9686 F       1  UNL1       -0.1659
@<TRIPOS>BOND
     1    22    23    1
     2    23    26    1
     3    26    27    1
     4    27    28   ar
     5    28    29   ar
     6    29    30   ar
     7    30    31   ar
     8    31    32   ar
     9    23    24   am
    10    24    25    2
    11    24    15    1
    12    15    11    1
    13    11    12   am
    14    12    13    2
    15    12     1    1
    16     1     2   ar
    17     2     3   ar
    18     3     4   ar
    19     4     5   ar
    20     5    33    1
    21    33    34   am
    22    34    35    2
    23    34    37    1
    24    37    38   ar
    25    38    39   ar
    26    39    40   ar
    27    40    41   ar
    28    41    42   ar
    29    42    43    1
    30    43    44   ar
    31    44    45   ar
    32    45    46   ar
    33    46    49    1
    34    49    50    1
    35    49    51    1
    36    49    52    1
    37    46    47   ar
    38    47    48   ar
    39     5     6   ar
    40     6     7   ar
    41     7     8   ar
    42     8     9   ar
    43     9    10    1
    44    15    16    1
    45    16    17   ar
    46    17    18   ar
    47    18    19   ar
    48    19    20   ar
    49    20    21   ar
    50    32    27   ar
    51     9     1   ar
    52    21    16   ar
    53     8     3   ar
    54    42    37   ar
    55    48    43   ar
    56    11    14    1
    57    33    36    1
