@<TRIPOS>MOLECULE
*****
 23 25 0 0 0
SMALL
GASTEIGER

@<TRIPOS>ATOM
      1 C          66.3475   93.3499   11.2711 C.ar    1  UNL1        0.1384
      2 C          65.1683   93.0401   10.3973 C.ar    1  UNL1        0.0369
      3 C          64.1684   92.0071   10.8254 C.ar    1  UNL1        0.0025
      4 C          64.3478   91.2839   12.1272 C.ar    1  UNL1       -0.0076
      5 C          65.5270   91.5937   13.0009 C.ar    1  UNL1       -0.0154
      6 C          66.5268   92.6267   12.5729 C.ar    1  UNL1        0.0329
      7 C          65.4409   90.7251   14.2209 C.3     1  UNL1        0.0481
      8 C          64.2084   89.8785   14.1010 C.2     1  UNL1       -0.0420
      9 C          63.5329   90.2239   12.8070 C.2     1  UNL1       -0.0239
     10 C          67.7034   94.5265    9.3930 C.3     1  UNL1        0.2525
     11 O          67.3473   94.3829   10.8430 O.3     1  UNL1       -0.4714
     12 C          63.7347   88.8645   15.0998 C.3     1  UNL1        0.0394
     13 C          64.2998   87.4751   15.0837 C.3     1  UNL1        0.0765
     14 N          63.6069   86.3749   15.8316 N.3     1  UNL1       -0.2700
     15 C          62.9763   86.6549   17.1635 C.3     1  UNL1        0.0897
     16 C          63.5446   84.9947   15.2475 C.3     1  UNL1        0.0897
     17 C          62.2650   89.6160   12.2847 C.3     1  UNL1        0.0730
     18 C          62.3149   88.3464   11.4874 C.ar    1  UNL1        0.0825
     19 C          62.0874   88.3821   10.0052 C.ar    1  UNL1        0.1139
     20 N          62.1373   87.1125    9.2079 N.ar    1  UNL1       -0.2394
     21 C          62.4148   85.8072    9.8928 C.ar    1  UNL1        0.1195
     22 C          62.6423   85.7715   11.3750 C.ar    1  UNL1        0.1191
     23 N          62.5924   87.0410   12.1723 N.ar    1  UNL1       -0.2446
@<TRIPOS>BOND
     1    10    11    1
     2    11     1    1
     3     1     2   ar
     4     2     3   ar
     5     3     4   ar
     6     4     5   ar
     7     5     6   ar
     8     5     7    1
     9     7     8    1
    10     8    12    1
    11    12    13    1
    12    13    14    1
    13    14    15    1
    14    14    16    1
    15     8     9    2
    16     9    17    1
    17    17    18    1
    18    18    19   ar
    19    19    20   ar
    20    20    21   ar
    21    21    22   ar
    22    22    23   ar
    23     6     1   ar
    24    23    18   ar
    25     9     4    1
@<TRIPOS>MOLECULE
*****
 23 25 0 0 0
SMALL
GASTEIGER

@<TRIPOS>ATOM
      1 C          61.0721   87.5200    9.6759 C.ar    1  UNL1        0.1384
      2 C          61.7660   88.4689   10.6076 C.ar    1  UNL1        0.0369
      3 C          62.6172   87.9373   11.7225 C.ar    1  UNL1        0.0025
      4 C          62.7744   86.4569   11.9058 C.ar    1  UNL1       -0.0076
      5 C          62.0805   85.5080   10.9741 C.ar    1  UNL1       -0.0154
      6 C          61.2294   86.0396    9.8592 C.ar    1  UNL1        0.0329
      7 C          62.4198   84.1100   11.3989 C.3     1  UNL1        0.0481
      8 C          63.3234   84.1949   12.5932 C.2     1  UNL1       -0.0420
      9 C          63.5426   85.6454   12.9064 C.2     1  UNL1       -0.0239
     10 C          59.3242   87.1249    7.7949 C.3     1  UNL1        0.2525
     11 O          60.2210   88.0515    8.5610 O.3     1  UNL1       -0.4714
     12 C          63.9056   83.0333   13.3427 C.3     1  UNL1        0.0394
     13 C          63.0261   82.1859   14.2136 C.3     1  UNL1        0.0765
     14 N          62.1693   81.1180   13.6009 N.3     1  UNL1       -0.2700
     15 C          60.7985   80.8505   14.1481 C.3     1  UNL1        0.0897
     16 C          62.6831   80.3177   12.4410 C.3     1  UNL1        0.0897
     17 C          64.3824   86.1889   14.0241 C.3     1  UNL1        0.0730
     18 C          63.7550   86.5008   15.3504 C.ar    1  UNL1        0.0825
     19 C          63.2300   85.3904   16.2114 C.ar    1  UNL1        0.1139
     20 N          62.6026   85.7022   17.5378 N.ar    1  UNL1       -0.2394
     21 C          62.5002   87.1245   18.0031 C.ar    1  UNL1        0.1195
     22 C          63.0252   88.2350   17.1421 C.ar    1  UNL1        0.1191
     23 N          63.6526   87.9231   15.8158 N.ar    1  UNL1       -0.2446
@<TRIPOS>BOND
     1    10    11    1
     2    11     1    1
     3     1     2   ar
     4     2     3   ar
     5     3     4   ar
     6     4     5   ar
     7     5     6   ar
     8     5     7    1
     9     7     8    1
    10     8    12    1
    11    12    13    1
    12    13    14    1
    13    14    15    1
    14    14    16    1
    15     8     9    2
    16     9    17    1
    17    17    18    1
    18    18    19   ar
    19    19    20   ar
    20    20    21   ar
    21    21    22   ar
    22    22    23   ar
    23     6     1   ar
    24    23    18   ar
    25     9     4    1
@<TRIPOS>MOLECULE
*****
 23 25 0 0 0
SMALL
GASTEIGER

@<TRIPOS>ATOM
      1 C          62.2751   89.4102   10.8145 C.ar    1  UNL1        0.1384
      2 C          62.7415   90.5776    9.9964 C.ar    1  UNL1        0.0369
      3 C          63.7208   91.5555   10.5750 C.ar    1  UNL1        0.0025
      4 C          64.2336   91.3659   11.9717 C.ar    1  UNL1       -0.0076
      5 C          63.7671   90.1985   12.7899 C.ar    1  UNL1       -0.0154
      6 C          62.7879   89.2206   12.2113 C.ar    1  UNL1        0.0329
      7 C          64.4423   90.2705   14.1275 C.3     1  UNL1        0.0481
      8 C          65.3260   91.4825   14.1360 C.2     1  UNL1       -0.0420
      9 C          65.1970   92.1595   12.8036 C.2     1  UNL1       -0.0239
     10 C          60.4037   88.8455    9.1031 C.3     1  UNL1        0.2525
     11 O          61.2958   88.4323   10.2359 O.3     1  UNL1       -0.4714
     12 C          66.1875   91.9377   15.2765 C.3     1  UNL1        0.0394
     13 C          67.6390   91.5617   15.3165 C.3     1  UNL1        0.0765
     14 N          68.6866   92.5765   14.9664 N.3     1  UNL1       -0.2700
     15 C          68.7830   93.8544   15.7459 C.3     1  UNL1        0.0897
     16 C          69.6378   92.3134   13.8369 C.3     1  UNL1        0.0897
     17 C          65.9069   93.4104   12.3779 C.3     1  UNL1        0.0730
     18 C          66.6937   93.4287   11.1010 C.ar    1  UNL1        0.0825
     19 C          66.4686   94.5200   10.0968 C.ar    1  UNL1        0.1139
     20 N          67.2555   94.5383    8.8199 N.ar    1  UNL1       -0.2394
     21 C          68.2675   93.4652    8.5472 C.ar    1  UNL1        0.1195
     22 C          68.4926   92.3739    9.5513 C.ar    1  UNL1        0.1191
     23 N          67.7057   92.3556   10.8282 N.ar    1  UNL1       -0.2446
@<TRIPOS>BOND
     1    10    11    1
     2    11     1    1
     3     1     2   ar
     4     2     3   ar
     5     3     4   ar
     6     4     5   ar
     7     5     6   ar
     8     5     7    1
     9     7     8    1
    10     8    12    1
    11    12    13    1
    12    13    14    1
    13    14    15    1
    14    14    16    1
    15     8     9    2
    16     9    17    1
    17    17    18    1
    18    18    19   ar
    19    19    20   ar
    20    20    21   ar
    21    21    22   ar
    22    22    23   ar
    23     6     1   ar
    24    23    18   ar
    25     9     4    1
@<TRIPOS>MOLECULE
*****
 23 25 0 0 0
SMALL
GASTEIGER

@<TRIPOS>ATOM
      1 C          61.6268   87.2297    9.7949 C.ar    1  UNL1        0.1384
      2 C          62.0439   86.0605   10.6368 C.ar    1  UNL1        0.0369
      3 C          62.7942   86.2869   11.9158 C.ar    1  UNL1        0.0025
      4 C          63.1274   87.6826   12.3528 C.ar    1  UNL1       -0.0076
      5 C          62.7103   88.8518   11.5109 C.ar    1  UNL1       -0.0154
      6 C          61.9600   88.6254   10.2320 C.ar    1  UNL1        0.0329
      7 C          63.1763   90.1039   12.1930 C.3     1  UNL1        0.0481
      8 C          63.8815   89.7085   13.4565 C.2     1  UNL1       -0.0420
      9 C          63.8513   88.2120   13.5552 C.2     1  UNL1       -0.0239
     10 C          59.3776   87.0600    8.5056 C.3     1  UNL1        0.2525
     11 O          60.8764   87.0033    8.5160 O.3     1  UNL1       -0.4714
     12 C          64.5071   90.6450   14.4473 C.3     1  UNL1        0.0394
     13 C          65.8939   91.1668   14.2139 C.3     1  UNL1        0.0765
     14 N          66.0929   92.5473   13.6621 N.3     1  UNL1       -0.2700
     15 C          65.6272   92.8746   12.2742 C.3     1  UNL1        0.0897
     16 C          66.7575   93.6005   14.4981 C.3     1  UNL1        0.0897
     17 C          64.4413   87.3894   14.6621 C.3     1  UNL1        0.0730
     18 C          64.0744   85.9412   14.7978 C.ar    1  UNL1        0.0825
     19 C          64.9605   84.8846   14.2076 C.ar    1  UNL1        0.1139
     20 N          64.5936   83.4365   14.3433 N.ar    1  UNL1       -0.2394
     21 C          63.3407   83.0450   15.0692 C.ar    1  UNL1        0.1195
     22 C          62.4546   84.1017   15.6594 C.ar    1  UNL1        0.1191
     23 N          62.8215   85.5498   15.5237 N.ar    1  UNL1       -0.2446
@<TRIPOS>BOND
     1    10    11    1
     2    11     1    1
     3     1     2   ar
     4     2     3   ar
     5     3     4   ar
     6     4     5   ar
     7     5     6   ar
     8     5     7    1
     9     7     8    1
    10     8    12    1
    11    12    13    1
    12    13    14    1
    13    14    15    1
    14    14    16    1
    15     8     9    2
    16     9    17    1
    17    17    18    1
    18    18    19   ar
    19    19    20   ar
    20    20    21   ar
    21    21    22   ar
    22    22    23   ar
    23     6     1   ar
    24    23    18   ar
    25     9     4    1
@<TRIPOS>MOLECULE
*****
 23 25 0 0 0
SMALL
GASTEIGER

@<TRIPOS>ATOM
      1 C          64.1777   85.5753   14.2687 C.ar    1  UNL1        0.1384
      2 C          64.5513   86.8603   14.9462 C.ar    1  UNL1        0.0369
      3 C          64.1826   88.1728   14.3205 C.ar    1  UNL1        0.0025
      4 C          63.4404   88.2003   13.0173 C.ar    1  UNL1       -0.0076
      5 C          63.0669   86.9152   12.3398 C.ar    1  UNL1       -0.0154
      6 C          63.4355   85.6027   12.9655 C.ar    1  UNL1        0.0329
      7 C          62.3414   87.2538   11.0712 C.3     1  UNL1        0.0481
      8 C          62.2667   88.7481   10.9648 C.2     1  UNL1       -0.0420
      9 C          62.9459   89.3331   12.1675 C.2     1  UNL1       -0.0239
     10 C          63.7568   83.0293   14.5702 C.3     1  UNL1        0.2525
     11 O          64.5463   84.2628   14.8944 O.3     1  UNL1       -0.4714
     12 C          61.6253   89.5218    9.8511 C.3     1  UNL1        0.0394
     13 C          60.1737   89.3160    9.5339 C.3     1  UNL1        0.0765
     14 N          59.7752   88.4966    8.3424 N.3     1  UNL1       -0.2700
     15 C          59.7212   87.0011    8.4447 C.3     1  UNL1        0.0897
     16 C          59.4307   89.1728    7.0486 C.3     1  UNL1        0.0897
     17 C          63.1030   90.7943   12.4677 C.3     1  UNL1        0.0730
     18 C          64.4012   91.4853   12.1725 C.ar    1  UNL1        0.0825
     19 C          64.6644   92.0329   10.8011 C.ar    1  UNL1        0.1139
     20 N          65.9627   92.7239   10.5058 N.ar    1  UNL1       -0.2394
     21 C          66.9977   92.8672   11.5820 C.ar    1  UNL1        0.1195
     22 C          66.7345   92.3196   12.9534 C.ar    1  UNL1        0.1191
     23 N          65.4362   91.6286   13.2487 N.ar    1  UNL1       -0.2446
@<TRIPOS>BOND
     1    10    11    1
     2    11     1    1
     3     1     2   ar
     4     2     3   ar
     5     3     4   ar
     6     4     5   ar
     7     5     6   ar
     8     5     7    1
     9     7     8    1
    10     8    12    1
    11    12    13    1
    12    13    14    1
    13    14    15    1
    14    14    16    1
    15     8     9    2
    16     9    17    1
    17    17    18    1
    18    18    19   ar
    19    19    20   ar
    20    20    21   ar
    21    21    22   ar
    22    22    23   ar
    23     6     1   ar
    24    23    18   ar
    25     9     4    1
@<TRIPOS>MOLECULE
*****
 23 25 0 0 0
SMALL
GASTEIGER

@<TRIPOS>ATOM
      1 C          61.0256   87.3681    9.1302 C.ar    1  UNL1        0.1384
      2 C          60.9882   88.8584    9.2958 C.ar    1  UNL1        0.0369
      3 C          61.6592   89.4991   10.4744 C.ar    1  UNL1        0.0025
      4 C          62.3676   88.6495   11.4875 C.ar    1  UNL1       -0.0076
      5 C          62.4050   87.1592   11.3218 C.ar    1  UNL1       -0.0154
      6 C          61.7340   86.5185   10.1432 C.ar    1  UNL1        0.0329
      7 C          63.1740   86.5839   12.4741 C.3     1  UNL1        0.0481
      8 C          63.6119   87.7187   13.3519 C.2     1  UNL1       -0.0420
      9 C          63.1135   88.9953   12.7421 C.2     1  UNL1       -0.0239
     10 C          58.9305   87.0658    7.6238 C.3     1  UNL1        0.2525
     11 O          60.3546   86.7274    7.9515 O.3     1  UNL1       -0.4714
     12 C          64.4083   87.5981   14.6173 C.3     1  UNL1        0.0394
     13 C          64.5053   86.2760   15.3193 C.3     1  UNL1        0.0765
     14 N          63.3263   85.7406   16.0764 N.3     1  UNL1       -0.2700
     15 C          62.6282   84.5017   15.5991 C.3     1  UNL1        0.0897
     16 C          62.8455   86.4440   17.3109 C.3     1  UNL1        0.0897
     17 C          63.3240   90.3754   13.2906 C.3     1  UNL1        0.0730
     18 C          64.4217   91.2400   12.7450 C.ar    1  UNL1        0.0825
     19 C          65.5759   91.6284   13.6207 C.ar    1  UNL1        0.1139
     20 N          66.6736   92.4929   13.0751 N.ar    1  UNL1       -0.2394
     21 C          66.6170   92.9691   11.6538 C.ar    1  UNL1        0.1195
     22 C          65.4628   92.5807   10.7781 C.ar    1  UNL1        0.1191
     23 N          64.3651   91.7162   11.3237 N.ar    1  UNL1       -0.2446
@<TRIPOS>BOND
     1    10    11    1
     2    11     1    1
     3     1     2   ar
     4     2     3   ar
     5     3     4   ar
     6     4     5   ar
     7     5     6   ar
     8     5     7    1
     9     7     8    1
    10     8    12    1
    11    12    13    1
    12    13    14    1
    13    14    15    1
    14    14    16    1
    15     8     9    2
    16     9    17    1
    17    17    18    1
    18    18    19   ar
    19    19    20   ar
    20    20    21   ar
    21    21    22   ar
    22    22    23   ar
    23     6     1   ar
    24    23    18   ar
    25     9     4    1
@<TRIPOS>MOLECULE
*****
 23 25 0 0 0
SMALL
GASTEIGER

@<TRIPOS>ATOM
      1 C          64.1862   90.2348   13.8172 C.ar    1  UNL1        0.1384
      2 C          63.4978   89.8732   12.5346 C.ar    1  UNL1        0.0369
      3 C          63.2006   88.4365   12.2220 C.ar    1  UNL1        0.0025
      4 C          63.5918   87.3615   13.1921 C.ar    1  UNL1       -0.0076
      5 C          64.2802   87.7231   14.4748 C.ar    1  UNL1       -0.0154
      6 C          64.5774   89.1598   14.7874 C.ar    1  UNL1        0.0329
      7 C          64.5446   86.4557   15.2323 C.3     1  UNL1        0.0481
      8 C          64.0196   85.3108   14.4178 C.2     1  UNL1       -0.0420
      9 C          63.4308   85.8706   13.1569 C.2     1  UNL1       -0.0239
     10 C          65.7086   92.3246   13.5622 C.3     1  UNL1        0.2525
     11 O          64.4833   91.6715   14.1298 O.3     1  UNL1       -0.4714
     12 C          64.0739   83.8606   14.7974 C.3     1  UNL1        0.0394
     13 C          62.8032   83.0823   14.9694 C.3     1  UNL1        0.0765
     14 N          62.6066   81.7938   14.2271 N.3     1  UNL1       -0.2700
     15 C          61.2463   81.1647   14.1638 C.3     1  UNL1        0.0897
     16 C          63.7702   81.1344   13.5481 C.3     1  UNL1        0.0897
     17 C          62.7928   85.0786   12.0543 C.3     1  UNL1        0.0730
     18 C          62.0571   85.7834   10.9534 C.ar    1  UNL1        0.0825
     19 C          62.4759   85.5878    9.5264 C.ar    1  UNL1        0.1139
     20 N          61.7402   86.2926    8.4255 N.ar    1  UNL1       -0.2394
     21 C          60.5856   87.1929    8.7516 C.ar    1  UNL1        0.1195
     22 C          60.1667   87.3884   10.1785 C.ar    1  UNL1        0.1191
     23 N          60.9025   86.6837   11.2794 N.ar    1  UNL1       -0.2446
@<TRIPOS>BOND
     1    10    11    1
     2    11     1    1
     3     1     2   ar
     4     2     3   ar
     5     3     4   ar
     6     4     5   ar
     7     5     6   ar
     8     5     7    1
     9     7     8    1
    10     8    12    1
    11    12    13    1
    12    13    14    1
    13    14    15    1
    14    14    16    1
    15     8     9    2
    16     9    17    1
    17    17    18    1
    18    18    19   ar
    19    19    20   ar
    20    20    21   ar
    21    21    22   ar
    22    22    23   ar
    23     6     1   ar
    24    23    18   ar
    25     9     4    1
@<TRIPOS>MOLECULE
*****
 23 25 0 0 0
SMALL
GASTEIGER

@<TRIPOS>ATOM
      1 C          61.9004   89.1133   10.2308 C.ar    1  UNL1        0.1384
      2 C          62.1755   88.5550   11.5955 C.ar    1  UNL1        0.0369
      3 C          63.1212   89.2638   12.5193 C.ar    1  UNL1        0.0025
      4 C          63.7918   90.5309   12.0783 C.ar    1  UNL1       -0.0076
      5 C          63.5167   91.0893   10.7136 C.ar    1  UNL1       -0.0154
      6 C          62.5711   90.3805    9.7898 C.ar    1  UNL1        0.0329
      7 C          64.3193   92.3469   10.5568 C.3     1  UNL1        0.0481
      8 C          65.0903   92.5657   11.8248 C.2     1  UNL1       -0.0420
      9 C          64.7643   91.4434   12.7651 C.2     1  UNL1       -0.0239
     10 C          60.0439   89.1949    8.4152 C.3     1  UNL1        0.2525
     11 O          60.9548   88.4045    9.3071 O.3     1  UNL1       -0.4714
     12 C          66.0235   93.7066   12.1035 C.3     1  UNL1        0.0394
     13 C          66.0123   94.9180   11.2190 C.3     1  UNL1        0.0765
     14 N          66.9378   94.9951   10.0411 N.3     1  UNL1       -0.2700
     15 C          67.6362   93.7603    9.5539 C.3     1  UNL1        0.0897
     16 C          67.1648   96.3071    9.3504 C.3     1  UNL1        0.0897
     17 C          65.3142   91.2649   14.1491 C.3     1  UNL1        0.0730
     18 C          66.5991   91.9342   14.5378 C.ar    1  UNL1        0.0825
     19 C          67.8590   91.6362   13.7804 C.ar    1  UNL1        0.1139
     20 N          69.1439   92.3055   14.1690 N.ar    1  UNL1       -0.2394
     21 C          69.1689   93.2729   15.3151 C.ar    1  UNL1        0.1195
     22 C          67.9089   93.5710   16.0725 C.ar    1  UNL1        0.1191
     23 N          66.6240   92.9017   15.6839 N.ar    1  UNL1       -0.2446
@<TRIPOS>BOND
     1    10    11    1
     2    11     1    1
     3     1     2   ar
     4     2     3   ar
     5     3     4   ar
     6     4     5   ar
     7     5     6   ar
     8     5     7    1
     9     7     8    1
    10     8    12    1
    11    12    13    1
    12    13    14    1
    13    14    15    1
    14    14    16    1
    15     8     9    2
    16     9    17    1
    17    17    18    1
    18    18    19   ar
    19    19    20   ar
    20    20    21   ar
    21    21    22   ar
    22    22    23   ar
    23     6     1   ar
    24    23    18   ar
    25     9     4    1
@<TRIPOS>MOLECULE
*****
 23 25 0 0 0
SMALL
GASTEIGER

@<TRIPOS>ATOM
      1 C          59.3579   88.7192    7.3766 C.ar    1  UNL1        0.1384
      2 C          59.1043   87.3026    7.7995 C.ar    1  UNL1        0.0369
      3 C          59.8094   86.7399    8.9979 C.ar    1  UNL1        0.0025
      4 C          60.7681   87.5939    9.7735 C.ar    1  UNL1       -0.0076
      5 C          61.0217   89.0105    9.3507 C.ar    1  UNL1       -0.0154
      6 C          60.3166   89.5731    8.1522 C.ar    1  UNL1        0.0329
      7 C          62.0137   89.6083   10.3039 C.3     1  UNL1        0.0481
      8 C          62.3731   88.5611   11.3159 C.2     1  UNL1       -0.0420
      9 C          61.6033   87.3162   10.9881 C.2     1  UNL1       -0.0239
     10 C          59.0109   90.6467    5.6696 C.3     1  UNL1        0.2525
     11 O          58.6528   89.2818    6.1782 O.3     1  UNL1       -0.4714
     12 C          63.3338   88.7293   12.4557 C.3     1  UNL1        0.0394
     13 C          63.2664   89.9543   13.3188 C.3     1  UNL1        0.0765
     14 N          64.3947   90.9426   13.3077 N.3     1  UNL1       -0.2700
     15 C          65.3135   91.0452   14.4888 C.3     1  UNL1        0.0897
     16 C          64.6041   91.8283   12.1154 C.3     1  UNL1        0.0897
     17 C          61.6589   86.0208   11.7425 C.3     1  UNL1        0.0730
     18 C          62.5528   84.9139   11.2672 C.ar    1  UNL1        0.0825
     19 C          62.9724   84.8542    9.8284 C.ar    1  UNL1        0.1139
     20 N          63.8662   83.7473    9.3531 N.ar    1  UNL1       -0.2394
     21 C          64.3405   82.7002   10.3167 C.ar    1  UNL1        0.1195
     22 C          63.9209   82.7599   11.7556 C.ar    1  UNL1        0.1191
     23 N          63.0270   83.8668   12.2308 N.ar    1  UNL1       -0.2446
@<TRIPOS>BOND
     1    10    11    1
     2    11     1    1
     3     1     2   ar
     4     2     3   ar
     5     3     4   ar
     6     4     5   ar
     7     5     6   ar
     8     5     7    1
     9     7     8    1
    10     8    12    1
    11    12    13    1
    12    13    14    1
    13    14    15    1
    14    14    16    1
    15     8     9    2
    16     9    17    1
    17    17    18    1
    18    18    19   ar
    19    19    20   ar
    20    20    21   ar
    21    21    22   ar
    22    22    23   ar
    23     6     1   ar
    24    23    18   ar
    25     9     4    1
