@<TRIPOS>MOLECULE
*****
 30 33 0 0 0
SMALL
GASTEIGER

@<TRIPOS>ATOM
      1 C          62.5022   90.0307   11.5001 C.ar    1  UNL1        0.0792
      2 C          62.9468   90.8764   10.3438 C.ar    1  UNL1        0.0210
      3 C          64.0289   91.8977   10.5339 C.ar    1  UNL1        0.0553
      4 C          64.6663   92.0733   11.8803 C.ar    1  UNL1        0.2045
      5 C          64.2217   91.2275   13.0366 C.ar    1  UNL1        0.1507
      6 N          63.1397   90.2062   12.8465 N.ar    1  UNL1       -0.2419
      7 S          65.7483   93.0946   12.0704 S.O     1  UNL1        0.0765
      8 O          66.0162   93.6584   13.4344 O.co2   1  UNL1       -0.6736
      9 C          66.5624   93.5521   10.8966 C.ar    1  UNL1        0.1900
     10 C          67.4663   92.5867   10.1888 C.ar    1  UNL1        0.0821
     11 C          68.2804   93.0442    9.0149 C.ar    1  UNL1        0.1467
     12 F          69.1843   92.0788    8.3072 F       1  UNL1       -0.2039
     13 C          68.1906   94.4671    8.5489 C.ar    1  UNL1        0.0595
     14 C          67.2867   95.4325    9.2566 C.ar    1  UNL1        0.1467
     15 F          67.1969   96.8554    8.7906 F       1  UNL1       -0.2039
     16 C          66.4726   94.9750   10.4305 C.ar    1  UNL1        0.0821
     17 C          61.4202   89.0093   11.3100 C.3     1  UNL1        0.1361
     18 O          62.6640   86.7946    9.7138 O.2     1  UNL1       -0.2668
     19 C          62.1873   86.5350   11.1121 C.2     1  UNL1        0.2809
     20 N          61.5654   87.6423   11.9102 N.am    1  UNL1       -0.2931
     21 H          61.2525   87.4719   12.8280 H       1  UNL1        0.1502
     22 C          62.3325   85.1680   11.7123 C.ar    1  UNL1        0.1984
     23 C          62.5846   83.8961   10.9581 C.ar    1  UNL1        0.0453
     24 C          62.6590   82.7749   11.9518 C.ar    1  UNL1        0.0409
     25 C          62.8878   81.3016   11.7874 C.ar    1  UNL1        0.0238
     26 C          62.9105   80.4073   12.9913 C.ar    1  UNL1        0.0991
     27 N          62.7044   80.9862   14.3597 N.ar    1  UNL1       -0.2391
     28 C          62.4756   82.4594   14.5241 C.ar    1  UNL1        0.1362
     29 C          62.4529   83.3538   13.3201 C.ar    1  UNL1        0.1646
     30 O          62.2511   84.8328   13.1721 O.2     1  UNL1       -0.4473
@<TRIPOS>UNITY_ATOM_ATTR
7 1
charge 1
8 1
charge -1
@<TRIPOS>BOND
     1    18    19    2
     2    19    20   am
     3    20    17    1
     4    17     1    1
     5     1     2   ar
     6     2     3   ar
     7     3     4   ar
     8     4     7    1
     9     7     8    2
    10     7     9    1
    11     9    10   ar
    12    10    11   ar
    13    11    12    1
    14    11    13   ar
    15    13    14   ar
    16    14    15    1
    17    14    16   ar
    18     4     5   ar
    19     5     6   ar
    20    19    22    1
    21    22    23   ar
    22    23    24   ar
    23    24    25   ar
    24    25    26   ar
    25    26    27   ar
    26    27    28   ar
    27    28    29   ar
    28    29    30   ar
    29     6     1   ar
    30    30    22   ar
    31    16     9   ar
    32    29    24   ar
    33    20    21    1
@<TRIPOS>MOLECULE
*****
 30 33 0 0 0
SMALL
GASTEIGER

@<TRIPOS>ATOM
      1 C          62.5537   89.9588   11.3838 C.ar    1  UNL1        0.0792
      2 C          63.2605   90.0542   12.7034 C.ar    1  UNL1        0.0210
      3 C          64.3197   91.0955   12.9133 C.ar    1  UNL1        0.0553
      4 C          64.6721   92.0412   11.8036 C.ar    1  UNL1        0.2045
      5 C          63.9652   91.9457   10.4840 C.ar    1  UNL1        0.1507
      6 N          62.9060   90.9045   10.2741 N.ar    1  UNL1       -0.2419
      7 S          65.7312   93.0824   12.0134 S.O     1  UNL1        0.0765
      8 O          65.9515   93.6637   13.3786 O.co2   1  UNL1       -0.6736
      9 C          66.5701   93.5423   10.8582 C.ar    1  UNL1        0.1900
     10 C          66.4993   94.9691   10.4009 C.ar    1  UNL1        0.0821
     11 C          67.3382   95.4290    9.2456 C.ar    1  UNL1        0.1467
     12 F          67.2674   96.8559    8.7884 F       1  UNL1       -0.2039
     13 C          68.2479   94.4620    8.5475 C.ar    1  UNL1        0.0595
     14 C          68.3187   93.0352    9.0047 C.ar    1  UNL1        0.1467
     15 F          69.2285   92.0682    8.3067 F       1  UNL1       -0.2039
     16 C          67.4799   92.5753   10.1600 C.ar    1  UNL1        0.0821
     17 C          61.4945   88.9175   11.1739 C.3     1  UNL1        0.1361
     18 O          62.6251   86.6293    9.5974 O.2     1  UNL1       -0.2668
     19 C          62.2004   86.4219   11.0209 C.2     1  UNL1        0.2809
     20 N          61.6351   87.5660   11.8092 N.am    1  UNL1       -0.2931
     21 H          61.3563   87.4299   12.7435 H       1  UNL1        0.1502
     22 C          62.3410   85.0704   11.6562 C.ar    1  UNL1        0.1984
     23 C          62.6220   83.7836   10.9384 C.ar    1  UNL1        0.0453
     24 C          62.6800   82.6863   11.9594 C.ar    1  UNL1        0.0409
     25 C          62.9243   81.2116   11.8351 C.ar    1  UNL1        0.0238
     26 C          62.9235   80.3454   13.0597 C.ar    1  UNL1        0.0991
     27 N          62.6782   80.9539   14.4086 N.ar    1  UNL1       -0.2391
     28 C          62.4338   82.4286   14.5329 C.ar    1  UNL1        0.1362
     29 C          62.4347   83.2948   13.3083 C.ar    1  UNL1        0.1646
     30 O          62.2252   84.7682   13.1209 O.2     1  UNL1       -0.4473
@<TRIPOS>UNITY_ATOM_ATTR
7 1
charge 1
8 1
charge -1
@<TRIPOS>BOND
     1    18    19    2
     2    19    20   am
     3    20    17    1
     4    17     1    1
     5     1     2   ar
     6     2     3   ar
     7     3     4   ar
     8     4     7    1
     9     7     8    2
    10     7     9    1
    11     9    10   ar
    12    10    11   ar
    13    11    12    1
    14    11    13   ar
    15    13    14   ar
    16    14    15    1
    17    14    16   ar
    18     4     5   ar
    19     5     6   ar
    20    19    22    1
    21    22    23   ar
    22    23    24   ar
    23    24    25   ar
    24    25    26   ar
    25    26    27   ar
    26    27    28   ar
    27    28    29   ar
    28    29    30   ar
    29     6     1   ar
    30    30    22   ar
    31    16     9   ar
    32    29    24   ar
    33    20    21    1
@<TRIPOS>MOLECULE
*****
 30 33 0 0 0
SMALL
GASTEIGER

@<TRIPOS>ATOM
      1 C          64.7261   90.2266   14.3619 C.ar    1  UNL1        0.0792
      2 C          64.0918   90.7178   13.0945 C.ar    1  UNL1        0.0210
      3 C          64.6088   91.9589   12.4292 C.ar    1  UNL1        0.0553
      4 C          65.7600   92.7087   13.0313 C.ar    1  UNL1        0.2045
      5 C          66.3943   92.2173   14.2988 C.ar    1  UNL1        0.1507
      6 N          65.8773   90.9763   14.9641 N.ar    1  UNL1       -0.2419
      7 S          66.2770   93.9497   12.3661 S.O     1  UNL1        0.0765
      8 O          66.1723   95.2736   13.0634 O.co2   1  UNL1       -0.6736
      9 C          66.8986   93.8667   11.0035 C.ar    1  UNL1        0.1900
     10 C          67.4356   92.5588   10.5024 C.ar    1  UNL1        0.0821
     11 C          68.0573   92.4759    9.1398 C.ar    1  UNL1        0.1467
     12 F          68.5942   91.1680    8.6387 F       1  UNL1       -0.2039
     13 C          68.1420   93.7009    8.2783 C.ar    1  UNL1        0.0595
     14 C          67.6050   95.0088    8.7794 C.ar    1  UNL1        0.1467
     15 F          67.6897   96.2338    7.9179 F       1  UNL1       -0.2039
     16 C          66.9834   95.0917   10.1419 C.ar    1  UNL1        0.0821
     17 C          64.2091   88.9855   15.0272 C.3     1  UNL1        0.1361
     18 O          63.4470   86.4389   16.4177 O.2     1  UNL1       -0.2668
     19 C          63.6983   86.4397   14.9389 C.2     1  UNL1        0.2809
     20 N          64.0794   87.7130   14.2437 N.am    1  UNL1       -0.2931
     21 H          64.2443   87.7136   13.2731 H       1  UNL1        0.1502
     22 C          63.5686   85.1672   14.1554 C.ar    1  UNL1        0.1984
     23 C          63.5285   85.0526   12.6603 C.ar    1  UNL1        0.0453
     24 C          63.3912   83.6005   12.3102 C.ar    1  UNL1        0.0409
     25 C          63.3012   82.8899   10.9923 C.ar    1  UNL1        0.0238
     26 C          63.1665   81.3965   10.9531 C.ar    1  UNL1        0.0991
     27 N          63.1218   80.6137   12.2318 N.ar    1  UNL1       -0.2391
     28 C          63.2118   81.3242   13.5498 C.ar    1  UNL1        0.1362
     29 C          63.3466   82.8176   13.5889 C.ar    1  UNL1        0.1646
     30 O          63.4561   83.7859   14.7293 O.2     1  UNL1       -0.4473
@<TRIPOS>UNITY_ATOM_ATTR
7 1
charge 1
8 1
charge -1
@<TRIPOS>BOND
     1    18    19    2
     2    19    20   am
     3    20    17    1
     4    17     1    1
     5     1     2   ar
     6     2     3   ar
     7     3     4   ar
     8     4     7    1
     9     7     8    2
    10     7     9    1
    11     9    10   ar
    12    10    11   ar
    13    11    12    1
    14    11    13   ar
    15    13    14   ar
    16    14    15    1
    17    14    16   ar
    18     4     5   ar
    19     5     6   ar
    20    19    22    1
    21    22    23   ar
    22    23    24   ar
    23    24    25   ar
    24    25    26   ar
    25    26    27   ar
    26    27    28   ar
    27    28    29   ar
    28    29    30   ar
    29     6     1   ar
    30    30    22   ar
    31    16     9   ar
    32    29    24   ar
    33    20    21    1
@<TRIPOS>MOLECULE
*****
 30 33 0 0 0
SMALL
GASTEIGER

@<TRIPOS>ATOM
      1 C          64.6878   90.1740   14.1677 C.ar    1  UNL1        0.0792
      2 C          65.7636   90.9552   14.8621 C.ar    1  UNL1        0.0210
      3 C          66.2879   92.2193   14.2478 C.ar    1  UNL1        0.0553
      4 C          65.7363   92.7022   12.9392 C.ar    1  UNL1        0.2045
      5 C          64.6605   91.9209   12.2447 C.ar    1  UNL1        0.1507
      6 N          64.1362   90.6568   12.8590 N.ar    1  UNL1       -0.2419
      7 S          66.2606   93.9662   12.3249 S.O     1  UNL1        0.0765
      8 O          66.2414   95.2450   13.1087 O.co2   1  UNL1       -0.6736
      9 C          66.8039   93.9514   10.9269 C.ar    1  UNL1        0.1900
     10 C          66.5229   95.0975   10.0009 C.ar    1  UNL1        0.0821
     11 C          67.0664   95.0827    8.6028 C.ar    1  UNL1        0.1467
     12 F          66.7854   96.2288    7.6767 F       1  UNL1       -0.2039
     13 C          67.8907   93.9218    8.1308 C.ar    1  UNL1        0.0595
     14 C          68.1717   92.7757    9.0568 C.ar    1  UNL1        0.1467
     15 F          68.9960   91.6148    8.5848 F       1  UNL1       -0.2039
     16 C          67.6283   92.7905   10.4548 C.ar    1  UNL1        0.0821
     17 C          64.1635   88.9099   14.7819 C.3     1  UNL1        0.1361
     18 O          63.6225   86.2666   16.0933 O.2     1  UNL1       -0.2668
     19 C          63.7491   86.3515   14.6011 C.2     1  UNL1        0.2809
     20 N          64.0196   87.6732   13.9454 N.am    1  UNL1       -0.2931
     21 H          64.1026   87.7289   12.9660 H       1  UNL1        0.1502
     22 C          63.6051   85.1148   13.7646 C.ar    1  UNL1        0.1984
     23 C          63.1203   83.7783   14.2428 C.ar    1  UNL1        0.0453
     24 C          63.1363   82.8349   13.0768 C.ar    1  UNL1        0.0409
     25 C          62.7643   81.3872   12.9518 C.ar    1  UNL1        0.0238
     26 C          62.8870   80.6929   11.6279 C.ar    1  UNL1        0.0991
     27 N          63.3817   81.4463   10.4289 N.ar    1  UNL1       -0.2391
     28 C          63.7537   82.8940   10.5538 C.ar    1  UNL1        0.1362
     29 C          63.6310   83.5883   11.8778 C.ar    1  UNL1        0.1646
     30 O          63.9207   84.9973   12.3028 O.2     1  UNL1       -0.4473
@<TRIPOS>UNITY_ATOM_ATTR
7 1
charge 1
8 1
charge -1
@<TRIPOS>BOND
     1    18    19    2
     2    19    20   am
     3    20    17    1
     4    17     1    1
     5     1     2   ar
     6     2     3   ar
     7     3     4   ar
     8     4     7    1
     9     7     8    2
    10     7     9    1
    11     9    10   ar
    12    10    11   ar
    13    11    12    1
    14    11    13   ar
    15    13    14   ar
    16    14    15    1
    17    14    16   ar
    18     4     5   ar
    19     5     6   ar
    20    19    22    1
    21    22    23   ar
    22    23    24   ar
    23    24    25   ar
    24    25    26   ar
    25    26    27   ar
    26    27    28   ar
    27    28    29   ar
    28    29    30   ar
    29     6     1   ar
    30    30    22   ar
    31    16     9   ar
    32    29    24   ar
    33    20    21    1
@<TRIPOS>MOLECULE
*****
 30 33 0 0 0
SMALL
GASTEIGER

@<TRIPOS>ATOM
      1 C          63.7971   88.4236   15.2107 C.ar    1  UNL1        0.0792
      2 C          64.2264   87.7466   13.9429 C.ar    1  UNL1        0.0210
      3 C          64.2510   86.2489   13.8636 C.ar    1  UNL1        0.0553
      4 C          63.8464   85.4281   15.0522 C.ar    1  UNL1        0.2045
      5 C          63.4170   86.1052   16.3200 C.ar    1  UNL1        0.1507
      6 N          63.3924   87.6028   16.3993 N.ar    1  UNL1       -0.2419
      7 S          63.8710   83.9305   14.9729 S.O     1  UNL1        0.0765
      8 O          64.1159   83.1179   16.2097 O.co2   1  UNL1       -0.6736
      9 C          63.6507   83.2454   13.6568 C.ar    1  UNL1        0.1900
     10 C          63.1614   81.8278   13.6218 C.ar    1  UNL1        0.0821
     11 C          62.9411   81.1428   12.3057 C.ar    1  UNL1        0.1467
     12 F          62.4519   79.7252   12.2706 F       1  UNL1       -0.2039
     13 C          63.2100   81.8752   11.0246 C.ar    1  UNL1        0.0595
     14 C          63.6992   83.2928   11.0596 C.ar    1  UNL1        0.1467
     15 F          63.9682   84.0252    9.7786 F       1  UNL1       -0.2039
     16 C          63.9196   83.9779   12.3757 C.ar    1  UNL1        0.0821
     17 C          63.7725   89.9213   15.2900 C.3     1  UNL1        0.1361
     18 O          66.0195   91.8784   15.6366 O.2     1  UNL1       -0.2668
     19 C          65.3625   91.7204   14.2975 C.2     1  UNL1        0.2809
     20 N          64.2390   90.7418   14.1242 N.am    1  UNL1       -0.2931
     21 H          63.8077   90.6381   13.2453 H       1  UNL1        0.1502
     22 C          65.8290   92.5409   13.1317 C.ar    1  UNL1        0.1984
     23 C          66.4800   92.0144   11.8871 C.ar    1  UNL1        0.0453
     24 C          66.7797   93.1801   10.9920 C.ar    1  UNL1        0.0409
     25 C          67.4165   93.2671    9.6367 C.ar    1  UNL1        0.0238
     26 C          67.5876   94.6012    8.9728 C.ar    1  UNL1        0.0991
     27 N          67.1219   95.8483    9.6641 N.ar    1  UNL1       -0.2391
     28 C          66.4851   95.7612   11.0194 C.ar    1  UNL1        0.1362
     29 C          66.3140   94.4271   11.6833 C.ar    1  UNL1        0.1646
     30 O          65.7264   94.0321   13.0057 O.2     1  UNL1       -0.4473
@<TRIPOS>UNITY_ATOM_ATTR
7 1
charge 1
8 1
charge -1
@<TRIPOS>BOND
     1    18    19    2
     2    19    20   am
     3    20    17    1
     4    17     1    1
     5     1     2   ar
     6     2     3   ar
     7     3     4   ar
     8     4     7    1
     9     7     8    2
    10     7     9    1
    11     9    10   ar
    12    10    11   ar
    13    11    12    1
    14    11    13   ar
    15    13    14   ar
    16    14    15    1
    17    14    16   ar
    18     4     5   ar
    19     5     6   ar
    20    19    22    1
    21    22    23   ar
    22    23    24   ar
    23    24    25   ar
    24    25    26   ar
    25    26    27   ar
    26    27    28   ar
    27    28    29   ar
    28    29    30   ar
    29     6     1   ar
    30    30    22   ar
    31    16     9   ar
    32    29    24   ar
    33    20    21    1
@<TRIPOS>MOLECULE
*****
 30 33 0 0 0
SMALL
GASTEIGER

@<TRIPOS>ATOM
      1 C          63.8398   88.3099   15.1327 C.ar    1  UNL1        0.0792
      2 C          64.2148   87.6364   13.8459 C.ar    1  UNL1        0.0210
      3 C          64.2227   86.1389   13.7578 C.ar    1  UNL1        0.0553
      4 C          63.8557   85.3151   14.9564 C.ar    1  UNL1        0.2045
      5 C          63.4807   85.9888   16.2431 C.ar    1  UNL1        0.1507
      6 N          63.4728   87.4861   16.3313 N.ar    1  UNL1       -0.2419
      7 S          63.8636   83.8178   14.8682 S.O     1  UNL1        0.0765
      8 O          64.0750   82.9948   16.1044 O.co2   1  UNL1       -0.6736
      9 C          63.6601   83.1434   13.5440 C.ar    1  UNL1        0.1900
     10 C          63.9366   83.8891   12.2722 C.ar    1  UNL1        0.0821
     11 C          63.7331   83.2147   10.9479 C.ar    1  UNL1        0.1467
     12 F          64.0096   83.9604    9.6761 F       1  UNL1       -0.2039
     13 C          63.2532   81.7945   10.8954 C.ar    1  UNL1        0.0595
     14 C          62.9768   81.0488   12.1672 C.ar    1  UNL1        0.1467
     15 F          62.4968   79.6286   12.1147 F       1  UNL1       -0.2039
     16 C          63.1802   81.7232   13.4914 C.ar    1  UNL1        0.0821
     17 C          63.8319   89.8074   15.2208 C.3     1  UNL1        0.1361
     18 O          65.8156   92.0135   15.6656 O.2     1  UNL1       -0.2668
     19 C          65.3037   91.7325   14.2840 C.2     1  UNL1        0.2809
     20 N          64.3119   90.6295   14.0616 N.am    1  UNL1       -0.2931
     21 H          63.9759   90.4450   13.1548 H       1  UNL1        0.1502
     22 C          65.7836   92.5546   13.1247 C.ar    1  UNL1        0.1984
     23 C          66.4036   92.0257   11.8655 C.ar    1  UNL1        0.0453
     24 C          66.7310   93.1941   10.9837 C.ar    1  UNL1        0.0409
     25 C          67.3554   93.2805    9.6226 C.ar    1  UNL1        0.0238
     26 C          67.5622   94.6180    8.9759 C.ar    1  UNL1        0.0991
     27 N          67.1446   95.8691    9.6902 N.ar    1  UNL1       -0.2391
     28 C          66.5201   95.7827   11.0512 C.ar    1  UNL1        0.1362
     29 C          66.3133   94.4452   11.6980 C.ar    1  UNL1        0.1646
     30 O          65.7278   94.0500   13.0212 O.2     1  UNL1       -0.4473
@<TRIPOS>UNITY_ATOM_ATTR
7 1
charge 1
8 1
charge -1
@<TRIPOS>BOND
     1    18    19    2
     2    19    20   am
     3    20    17    1
     4    17     1    1
     5     1     2   ar
     6     2     3   ar
     7     3     4   ar
     8     4     7    1
     9     7     8    2
    10     7     9    1
    11     9    10   ar
    12    10    11   ar
    13    11    12    1
    14    11    13   ar
    15    13    14   ar
    16    14    15    1
    17    14    16   ar
    18     4     5   ar
    19     5     6   ar
    20    19    22    1
    21    22    23   ar
    22    23    24   ar
    23    24    25   ar
    24    25    26   ar
    25    26    27   ar
    26    27    28   ar
    27    28    29   ar
    28    29    30   ar
    29     6     1   ar
    30    30    22   ar
    31    16     9   ar
    32    29    24   ar
    33    20    21    1
@<TRIPOS>MOLECULE
*****
 30 33 0 0 0
SMALL
GASTEIGER

@<TRIPOS>ATOM
      1 C          62.4187   89.5412   11.1450 C.ar    1  UNL1        0.0792
      2 C          63.1232   89.6010   12.4679 C.ar    1  UNL1        0.0210
      3 C          64.1357   90.6763   12.7304 C.ar    1  UNL1        0.0553
      4 C          64.4435   91.6916   11.6701 C.ar    1  UNL1        0.2045
      5 C          63.7389   91.6317   10.3472 C.ar    1  UNL1        0.1507
      6 N          62.7265   90.5565   10.0847 N.ar    1  UNL1       -0.2419
      7 S          65.4559   92.7668   11.9326 S.O     1  UNL1        0.0765
      8 O          65.5113   93.9769   11.0480 O.co2   1  UNL1       -0.6736
      9 C          66.4129   92.6319   13.0797 C.ar    1  UNL1        0.1900
     10 C          65.9274   92.8154   14.4870 C.ar    1  UNL1        0.0821
     11 C          66.8845   92.6804   15.6342 C.ar    1  UNL1        0.1467
     12 F          66.3990   92.8639   17.0415 F       1  UNL1       -0.2039
     13 C          68.3270   92.3620   15.3739 C.ar    1  UNL1        0.0595
     14 C          68.8125   92.1786   13.9666 C.ar    1  UNL1        0.1467
     15 F          70.2550   91.8602   13.7063 F       1  UNL1       -0.2039
     16 C          67.8555   92.3135   12.8195 C.ar    1  UNL1        0.0821
     17 C          61.4062   88.4659   10.8825 C.3     1  UNL1        0.1361
     18 O          62.7959   86.2027    9.4874 O.2     1  UNL1       -0.2668
     19 C          62.2295   86.0019   10.8617 C.2     1  UNL1        0.2809
     20 N          61.5347   87.1334   11.5592 N.am    1  UNL1       -0.2931
     21 H          61.1629   87.0016   12.4613 H       1  UNL1        0.1502
     22 C          62.3580   84.6694   11.5384 C.ar    1  UNL1        0.1984
     23 C          62.6005   83.3547   10.8582 C.ar    1  UNL1        0.0453
     24 C          62.6589   82.2904   11.9136 C.ar    1  UNL1        0.0409
     25 C          62.8734   80.8080   11.8334 C.ar    1  UNL1        0.0238
     26 C          62.8814   79.9826   13.0857 C.ar    1  UNL1        0.0991
     27 N          62.6749   80.6395   14.4183 N.ar    1  UNL1       -0.2391
     28 C          62.4604   82.1219   14.4986 C.ar    1  UNL1        0.1362
     29 C          62.4524   82.9473   13.2462 C.ar    1  UNL1        0.1646
     30 O          62.2664   84.4176   13.0143 O.2     1  UNL1       -0.4473
@<TRIPOS>UNITY_ATOM_ATTR
7 1
charge 1
8 1
charge -1
@<TRIPOS>BOND
     1    18    19    2
     2    19    20   am
     3    20    17    1
     4    17     1    1
     5     1     2   ar
     6     2     3   ar
     7     3     4   ar
     8     4     7    1
     9     7     8    2
    10     7     9    1
    11     9    10   ar
    12    10    11   ar
    13    11    12    1
    14    11    13   ar
    15    13    14   ar
    16    14    15    1
    17    14    16   ar
    18     4     5   ar
    19     5     6   ar
    20    19    22    1
    21    22    23   ar
    22    23    24   ar
    23    24    25   ar
    24    25    26   ar
    25    26    27   ar
    26    27    28   ar
    27    28    29   ar
    28    29    30   ar
    29     6     1   ar
    30    30    22   ar
    31    16     9   ar
    32    29    24   ar
    33    20    21    1
@<TRIPOS>MOLECULE
*****
 30 33 0 0 0
SMALL
GASTEIGER

@<TRIPOS>ATOM
      1 C          60.1939   88.3708    8.6049 C.ar    1  UNL1        0.0792
      2 C          60.1612   86.8925    8.8569 C.ar    1  UNL1        0.0210
      3 C          60.9914   86.3007    9.9572 C.ar    1  UNL1        0.0553
      4 C          61.8544   87.1872   10.8054 C.ar    1  UNL1        0.2045
      5 C          61.8871   88.6656   10.5532 C.ar    1  UNL1        0.1507
      6 N          61.0569   89.2573    9.4530 N.ar    1  UNL1       -0.2419
      7 S          62.6846   86.5955   11.9056 S.O     1  UNL1        0.0765
      8 O          63.4073   87.4932   12.8656 O.co2   1  UNL1       -0.6736
      9 C          62.7920   85.1059   12.0458 C.ar    1  UNL1        0.1900
     10 C          63.2965   84.2793   10.9003 C.ar    1  UNL1        0.0821
     11 C          63.4039   82.7896   11.0406 C.ar    1  UNL1        0.1467
     12 F          63.9084   81.9630    9.8951 F       1  UNL1       -0.2039
     13 C          63.0070   82.1268   12.3262 C.ar    1  UNL1        0.0595
     14 C          62.5025   82.9535   13.4717 C.ar    1  UNL1        0.1467
     15 F          62.1056   82.2906   14.7574 F       1  UNL1       -0.2039
     16 C          62.3951   84.4430   13.3315 C.ar    1  UNL1        0.0821
     17 C          59.3637   88.9626    7.5046 C.3     1  UNL1        0.1361
     18 O          57.6822   90.6976    5.7263 O.2     1  UNL1       -0.2668
     19 C          59.1720   90.6680    5.5540 C.2     1  UNL1        0.2809
     20 N          60.0127   89.8005    6.4431 N.am    1  UNL1       -0.2931
     21 H          60.9905   89.7810    6.3300 H       1  UNL1        0.1502
     22 C          59.8210   91.5058    4.4925 C.ar    1  UNL1        0.1984
     23 C          61.2640   91.4523    4.0865 C.ar    1  UNL1        0.0453
     24 C          61.4758   92.4577    2.9937 C.ar    1  UNL1        0.0409
     25 C          62.6939   92.8458    2.2092 C.ar    1  UNL1        0.0238
     26 C          62.5999   93.9089    1.1552 C.ar    1  UNL1        0.0991
     27 N          61.2877   94.5839    0.8857 N.ar    1  UNL1       -0.2391
     28 C          60.0696   94.1958    1.6702 C.ar    1  UNL1        0.1362
     29 C          60.1636   93.1327    2.7242 C.ar    1  UNL1        0.1646
     30 O          59.1409   92.5444    3.6505 O.2     1  UNL1       -0.4473
@<TRIPOS>UNITY_ATOM_ATTR
7 1
charge 1
8 1
charge -1
@<TRIPOS>BOND
     1    18    19    2
     2    19    20   am
     3    20    17    1
     4    17     1    1
     5     1     2   ar
     6     2     3   ar
     7     3     4   ar
     8     4     7    1
     9     7     8    2
    10     7     9    1
    11     9    10   ar
    12    10    11   ar
    13    11    12    1
    14    11    13   ar
    15    13    14   ar
    16    14    15    1
    17    14    16   ar
    18     4     5   ar
    19     5     6   ar
    20    19    22    1
    21    22    23   ar
    22    23    24   ar
    23    24    25   ar
    24    25    26   ar
    25    26    27   ar
    26    27    28   ar
    27    28    29   ar
    28    29    30   ar
    29     6     1   ar
    30    30    22   ar
    31    16     9   ar
    32    29    24   ar
    33    20    21    1
@<TRIPOS>MOLECULE
*****
 30 33 0 0 0
SMALL
GASTEIGER

@<TRIPOS>ATOM
      1 C          62.4343   89.5067   11.2216 C.ar    1  UNL1        0.0792
      2 C          62.7974   90.5087   10.1661 C.ar    1  UNL1        0.0210
      3 C          63.8041   91.5803   10.4638 C.ar    1  UNL1        0.0553
      4 C          64.4475   91.6497   11.8170 C.ar    1  UNL1        0.2045
      5 C          64.0843   90.6477   12.8725 C.ar    1  UNL1        0.1507
      6 N          63.0777   89.5762   12.5748 N.ar    1  UNL1       -0.2419
      7 S          65.4541   92.7212   12.1148 S.O     1  UNL1        0.0765
      8 O          65.6480   93.8561   11.1533 O.co2   1  UNL1       -0.6736
      9 C          66.2667   92.6578   13.3740 C.ar    1  UNL1        0.1900
     10 C          67.7603   92.5423   13.2977 C.ar    1  UNL1        0.0821
     11 C          68.5729   92.4789   14.5570 C.ar    1  UNL1        0.1467
     12 F          70.0665   92.3633   14.4807 F       1  UNL1       -0.2039
     13 C          67.8919   92.5310   15.8924 C.ar    1  UNL1        0.0595
     14 C          66.3983   92.6465   15.9687 C.ar    1  UNL1        0.1467
     15 F          65.7173   92.6986   17.3041 F       1  UNL1       -0.2039
     16 C          65.5857   92.7099   14.7095 C.ar    1  UNL1        0.0821
     17 C          61.4277   88.4351   10.9239 C.3     1  UNL1        0.1361
     18 O          62.8445   86.1825    9.5391 O.2     1  UNL1       -0.2668
     19 C          62.2468   85.9697   10.8983 C.2     1  UNL1        0.2809
     20 N          61.5383   87.0960   11.5906 N.am    1  UNL1       -0.2931
     21 H          61.1460   86.9564   12.4827 H       1  UNL1        0.1502
     22 C          62.3575   84.6306   11.5650 C.ar    1  UNL1        0.1984
     23 C          62.5916   83.3191   10.8757 C.ar    1  UNL1        0.0453
     24 C          62.6323   82.2458   11.9228 C.ar    1  UNL1        0.0409
     25 C          62.8326   80.7621   11.8320 C.ar    1  UNL1        0.0238
     26 C          62.8240   79.9265   13.0777 C.ar    1  UNL1        0.0991
     27 N          62.6150   80.5747   14.4142 N.ar    1  UNL1       -0.2391
     28 C          62.4146   82.0585   14.5050 C.ar    1  UNL1        0.1362
     29 C          62.4233   82.8940   13.2593 C.ar    1  UNL1        0.1646
     30 O          62.2534   84.3679   13.0382 O.2     1  UNL1       -0.4473
@<TRIPOS>UNITY_ATOM_ATTR
7 1
charge 1
8 1
charge -1
@<TRIPOS>BOND
     1    18    19    2
     2    19    20   am
     3    20    17    1
     4    17     1    1
     5     1     2   ar
     6     2     3   ar
     7     3     4   ar
     8     4     7    1
     9     7     8    2
    10     7     9    1
    11     9    10   ar
    12    10    11   ar
    13    11    12    1
    14    11    13   ar
    15    13    14   ar
    16    14    15    1
    17    14    16   ar
    18     4     5   ar
    19     5     6   ar
    20    19    22    1
    21    22    23   ar
    22    23    24   ar
    23    24    25   ar
    24    25    26   ar
    25    26    27   ar
    26    27    28   ar
    27    28    29   ar
    28    29    30   ar
    29     6     1   ar
    30    30    22   ar
    31    16     9   ar
    32    29    24   ar
    33    20    21    1
