@<TRIPOS>MOLECULE
*****
 35 38 0 0 0
SMALL
GASTEIGER

@<TRIPOS>ATOM
      1 C          63.2562   87.0395   12.5926 C.ar    1  UNL1        0.1390
      2 C          63.3315   85.5632   12.8470 C.ar    1  UNL1        0.0733
      3 C          62.5450   84.6138   11.9925 C.ar    1  UNL1        0.1679
      4 N          61.6831   85.1408   10.8837 N.ar    1  UNL1       -0.2061
      5 C          61.6078   86.6172   10.6294 C.ar    1  UNL1        0.1828
      6 N          62.3943   87.5665   11.4838 N.ar    1  UNL1       -0.2101
      7 N          62.6203   83.1375   12.2469 N.ar    1  UNL1       -0.2164
      8 N          61.9717   82.4045   13.3836 N.ar    1  UNL1       -0.1684
      9 C          62.3080   80.9489   13.2485 C.ar    1  UNL1        0.0805
     10 C          61.8655   79.8524   14.1715 C.3     1  UNL1        0.0540
     11 C          63.1644   80.7823   12.0282 C.ar    1  UNL1        0.0312
     12 C          63.3574   82.1349   11.4093 C.ar    1  UNL1        0.0637
     13 C          64.1486   82.4327   10.1702 C.3     1  UNL1        0.0522
     14 C          60.7459   87.1442    9.5206 C.ar    1  UNL1        0.1171
     15 C          60.6468   88.6224    9.2856 C.ar    1  UNL1        0.0223
     16 C          59.7849   89.1494    8.1768 C.ar    1  UNL1        0.0032
     17 C          59.0222   88.1982    7.3029 C.ar    1  UNL1        0.0207
     18 C          59.1214   86.7201    7.5379 C.ar    1  UNL1        0.0989
     19 N          59.9833   86.1931    8.6467 N.ar    1  UNL1       -0.2407
     20 C          63.4476   89.3062   13.8480 C.2     1  UNL1        0.2316
     21 O          62.0659   89.6740   13.3943 O.2     1  UNL1       -0.2744
     22 N          64.0427   87.9889   13.4471 N.am    1  UNL1       -0.2689
     23 H          64.9496   87.7475   13.7448 H       1  UNL1        0.1563
     24 C          64.2341   90.2556   14.7024 C.3     1  UNL1        0.1118
     25 C          66.3589   93.7461   12.8180 C.ar    1  UNL1        0.1722
     26 C          65.3761   92.9449   12.0167 C.ar    1  UNL1        0.0397
     27 C          64.6678   91.7814   12.6448 C.ar    1  UNL1       -0.0005
     28 C          64.9423   91.4191   14.0743 C.ar    1  UNL1       -0.0099
     29 C          65.9251   92.2203   14.8756 C.ar    1  UNL1        0.0363
     30 C          66.6334   93.3838   14.2474 C.ar    1  UNL1        0.1721
     31 O          67.6163   94.1850   15.0488 O.3     1  UNL1       -0.4684
     32 C          68.7080   93.4907   15.8078 C.3     1  UNL1        0.2526
     33 O          67.0672   94.9097   12.1899 O.3     1  UNL1       -0.4724
     34 C          67.3806   95.0271    9.6135 C.3     1  UNL1        0.0512
     35 C          66.6278   95.4206   10.8498 C.3     1  UNL1        0.2057
@<TRIPOS>BOND
     1    34    35    1
     2    35    33    1
     3    33    25    1
     4    25    26   ar
     5    26    27   ar
     6    27    28   ar
     7    28    24    1
     8    24    20    1
     9    20    21    2
    10    20    22   am
    11    22     1    1
    12     1     2   ar
    13     2     3   ar
    14     3     7    1
    15     7     8   ar
    16     8     9   ar
    17     9    10    1
    18     9    11   ar
    19    11    12   ar
    20    12    13    1
    21     3     4   ar
    22     4     5   ar
    23     5    14    1
    24    14    15   ar
    25    15    16   ar
    26    16    17   ar
    27    17    18   ar
    28    18    19   ar
    29     5     6   ar
    30    28    29   ar
    31    29    30   ar
    32    30    31    1
    33    31    32    1
    34    30    25   ar
    35     6     1   ar
    36    12     7   ar
    37    19    14   ar
    38    22    23    1
@<TRIPOS>MOLECULE
*****
 35 38 0 0 0
SMALL
GASTEIGER

@<TRIPOS>ATOM
      1 C          63.4634   87.4842   12.7733 C.ar    1  UNL1        0.1390
      2 C          63.4300   86.0545   13.2257 C.ar    1  UNL1        0.0733
      3 C          62.5537   85.0641   12.5178 C.ar    1  UNL1        0.1679
      4 N          61.7107   85.5034   11.3574 N.ar    1  UNL1       -0.2061
      5 C          61.7441   86.9333   10.9051 C.ar    1  UNL1        0.1828
      6 N          62.6204   87.9236   11.6130 N.ar    1  UNL1       -0.2101
      7 N          62.5203   83.6343   12.9701 N.ar    1  UNL1       -0.2164
      8 N          62.5941   82.4270   12.0831 N.ar    1  UNL1       -0.1684
      9 C          62.5267   81.2074   12.9537 C.ar    1  UNL1        0.0805
     10 C          62.5675   79.7840   12.4820 C.3     1  UNL1        0.0540
     11 C          62.4114   81.6609   14.3789 C.ar    1  UNL1        0.0312
     12 C          62.4074   83.1609   14.3890 C.ar    1  UNL1        0.0637
     13 C          62.3080   84.0341   15.6046 C.3     1  UNL1        0.0522
     14 C          60.9011   87.3727    9.7448 C.ar    1  UNL1        0.1171
     15 C          60.8143   88.8274    9.3891 C.ar    1  UNL1        0.0223
     16 C          59.9713   89.2667    8.2288 C.ar    1  UNL1        0.0032
     17 C          59.2151   88.2514    7.4241 C.ar    1  UNL1        0.0207
     18 C          59.3019   86.7968    7.7798 C.ar    1  UNL1        0.0989
     19 N          60.1449   86.3574    8.9401 N.ar    1  UNL1       -0.2407
     20 C          63.7254   89.6315   14.2123 C.2     1  UNL1        0.2316
     21 O          62.2348   89.7979   14.2355 O.2     1  UNL1       -0.2744
     22 N          64.3397   88.4747   13.4813 N.am    1  UNL1       -0.2689
     23 H          65.3180   88.3655   13.4661 H       1  UNL1        0.1563
     24 C          64.6017   90.6219   14.9202 C.3     1  UNL1        0.1118
     25 C          66.3915   94.0697   12.6488 C.ar    1  UNL1        0.1722
     26 C          66.5590   93.9842   14.1369 C.ar    1  UNL1        0.0397
     27 C          65.9624   92.8350   14.8940 C.ar    1  UNL1       -0.0005
     28 C          65.1983   91.7712   14.1631 C.ar    1  UNL1       -0.0099
     29 C          65.0307   91.8566   12.6750 C.ar    1  UNL1        0.0363
     30 C          65.6273   93.0059   11.9178 C.ar    1  UNL1        0.1721
     31 O          65.4597   93.0913   10.4296 O.3     1  UNL1       -0.4684
     32 C          66.6660   93.1872    9.5433 C.3     1  UNL1        0.2526
     33 O          66.9880   95.2189   11.8916 O.3     1  UNL1       -0.4724
     34 C          65.3561   96.5631   10.3817 C.3     1  UNL1        0.0512
     35 C          66.1730   96.4517   11.6348 C.3     1  UNL1        0.2057
@<TRIPOS>BOND
     1    34    35    1
     2    35    33    1
     3    33    25    1
     4    25    26   ar
     5    26    27   ar
     6    27    28   ar
     7    28    24    1
     8    24    20    1
     9    20    21    2
    10    20    22   am
    11    22     1    1
    12     1     2   ar
    13     2     3   ar
    14     3     7    1
    15     7     8   ar
    16     8     9   ar
    17     9    10    1
    18     9    11   ar
    19    11    12   ar
    20    12    13    1
    21     3     4   ar
    22     4     5   ar
    23     5    14    1
    24    14    15   ar
    25    15    16   ar
    26    16    17   ar
    27    17    18   ar
    28    18    19   ar
    29     5     6   ar
    30    28    29   ar
    31    29    30   ar
    32    30    31    1
    33    31    32    1
    34    30    25   ar
    35     6     1   ar
    36    12     7   ar
    37    19    14   ar
    38    22    23    1
@<TRIPOS>MOLECULE
*****
 35 38 0 0 0
SMALL
GASTEIGER

@<TRIPOS>ATOM
      1 C          61.3276   87.2474    9.8023 C.ar    1  UNL1        0.1390
      2 C          61.9937   88.4636   10.3744 C.ar    1  UNL1        0.0733
      3 C          62.8040   88.3533   11.6319 C.ar    1  UNL1        0.1679
      4 N          62.9482   87.0269   12.3173 N.ar    1  UNL1       -0.2061
      5 C          62.2822   85.8107   11.7451 C.ar    1  UNL1        0.1828
      6 N          61.4719   85.9210   10.4877 N.ar    1  UNL1       -0.2101
      7 N          63.4700   89.5695   12.2040 N.ar    1  UNL1       -0.2164
      8 N          64.0987   89.6738   13.5619 N.ar    1  UNL1       -0.1684
      9 C          64.6415   91.0636   13.7159 C.ar    1  UNL1        0.0805
     10 C          65.3527   91.6040   14.9210 C.3     1  UNL1        0.0540
     11 C          64.3484   91.8183   12.4530 C.ar    1  UNL1        0.0312
     12 C          63.6244   90.8948   11.5187 C.ar    1  UNL1        0.0637
     13 C          63.1398   91.2367   10.1409 C.3     1  UNL1        0.0522
     14 C          62.4264   84.4842   12.4305 C.ar    1  UNL1        0.1171
     15 C          62.6689   83.2445   11.6215 C.ar    1  UNL1        0.0223
     16 C          62.8132   81.9180   12.3069 C.ar    1  UNL1        0.0032
     17 C          62.7149   81.8313   13.8012 C.ar    1  UNL1        0.0207
     18 C          62.4724   83.0710   14.6101 C.ar    1  UNL1        0.0989
     19 N          62.3282   84.3974   13.9247 N.ar    1  UNL1       -0.2407
     20 C          59.8277   88.6464    8.2076 C.2     1  UNL1        0.2316
     21 O          59.9484   89.8248    9.1279 O.2     1  UNL1       -0.2744
     22 N          60.5173   87.3577    8.5448 N.am    1  UNL1       -0.2689
     23 H          60.4381   86.5843    7.9408 H       1  UNL1        0.1563
     24 C          59.0174   88.7567    6.9501 C.3     1  UNL1        0.1118
     25 C          59.6353   92.2438    4.1738 C.ar    1  UNL1        0.1722
     26 C          58.2608   91.9242    4.6821 C.ar    1  UNL1        0.0397
     27 C          58.0548   90.7618    5.6075 C.ar    1  UNL1       -0.0005
     28 C          59.2234   89.9191    6.0247 C.ar    1  UNL1       -0.0099
     29 C          60.5979   90.2387    5.5164 C.ar    1  UNL1        0.0363
     30 C          60.8039   91.4010    4.5910 C.ar    1  UNL1        0.1721
     31 O          62.1786   91.7206    4.0827 O.3     1  UNL1       -0.4684
     32 C          62.9504   90.6922    3.3103 C.3     1  UNL1        0.2526
     33 O          59.8413   93.4062    3.2484 O.3     1  UNL1       -0.4724
     34 C          60.9336   92.8568    0.9560 C.3     1  UNL1        0.0512
     35 C          59.7225   93.2145    1.7655 C.3     1  UNL1        0.2057
@<TRIPOS>BOND
     1    34    35    1
     2    35    33    1
     3    33    25    1
     4    25    26   ar
     5    26    27   ar
     6    27    28   ar
     7    28    24    1
     8    24    20    1
     9    20    21    2
    10    20    22   am
    11    22     1    1
    12     1     2   ar
    13     2     3   ar
    14     3     7    1
    15     7     8   ar
    16     8     9   ar
    17     9    10    1
    18     9    11   ar
    19    11    12   ar
    20    12    13    1
    21     3     4   ar
    22     4     5   ar
    23     5    14    1
    24    14    15   ar
    25    15    16   ar
    26    16    17   ar
    27    17    18   ar
    28    18    19   ar
    29     5     6   ar
    30    28    29   ar
    31    29    30   ar
    32    30    31    1
    33    31    32    1
    34    30    25   ar
    35     6     1   ar
    36    12     7   ar
    37    19    14   ar
    38    22    23    1
@<TRIPOS>MOLECULE
*****
 35 38 0 0 0
SMALL
GASTEIGER

@<TRIPOS>ATOM
      1 C          61.1523   88.9237   10.1601 C.ar    1  UNL1        0.1390
      2 C          61.2993   87.4762   10.5249 C.ar    1  UNL1        0.0733
      3 C          62.3431   87.0549   11.5165 C.ar    1  UNL1        0.1679
      4 N          63.2399   88.0811   12.1431 N.ar    1  UNL1       -0.2061
      5 C          63.0928   89.5286   11.7783 C.ar    1  UNL1        0.1828
      6 N          62.0491   89.9499   10.7868 N.ar    1  UNL1       -0.2101
      7 N          62.4901   85.6074   11.8813 N.ar    1  UNL1       -0.2164
      8 N          62.2820   85.0161   13.2440 N.ar    1  UNL1       -0.1684
      9 C          62.5343   83.5403   13.1524 C.ar    1  UNL1        0.0805
     10 C          62.4392   82.5578   14.2818 C.3     1  UNL1        0.0540
     11 C          62.8984   83.2195   11.7330 C.ar    1  UNL1        0.0312
     12 C          62.8711   84.4970   10.9474 C.ar    1  UNL1        0.0637
     13 C          63.1719   84.6393    9.4848 C.3     1  UNL1        0.0522
     14 C          63.9896   90.5549   12.4049 C.ar    1  UNL1        0.1171
     15 C          64.3975   90.4172   13.8419 C.ar    1  UNL1        0.0223
     16 C          65.2942   91.4434   14.4685 C.ar    1  UNL1        0.0032
     17 C          65.7831   92.6073   13.6583 C.ar    1  UNL1        0.0207
     18 C          65.3751   92.7449   12.2214 C.ar    1  UNL1        0.0989
     19 N          64.4784   91.7187   11.5947 N.ar    1  UNL1       -0.2407
     20 C          59.8445   88.5043    7.9547 C.2     1  UNL1        0.2316
     21 O          60.6243   87.2423    7.7323 O.2     1  UNL1       -0.2744
     22 N          60.1085   89.3450    9.1686 N.am    1  UNL1       -0.2689
     23 H          59.5968   90.1733    9.3145 H       1  UNL1        0.1563
     24 C          58.8008   88.9256    6.9632 C.3     1  UNL1        0.1118
     25 C          59.6494   92.2869    4.0941 C.ar    1  UNL1        0.1722
     26 C          58.2468   92.0379    4.5639 C.ar    1  UNL1        0.0397
     27 C          57.9639   90.9175    5.5202 C.ar    1  UNL1       -0.0005
     28 C          59.0836   90.0460    6.0068 C.ar    1  UNL1       -0.0099
     29 C          60.4862   90.2950    5.5370 C.ar    1  UNL1        0.0363
     30 C          60.7691   91.4154    4.5807 C.ar    1  UNL1        0.1721
     31 O          62.1718   91.6644    4.1109 O.3     1  UNL1       -0.4684
     32 C          62.8852   90.6264    3.2963 C.3     1  UNL1        0.2526
     33 O          59.9323   93.4073    3.1377 O.3     1  UNL1       -0.4724
     34 C          60.8978   92.6197    0.8579 C.3     1  UNL1        0.0512
     35 C          59.7688   93.1931    1.6622 C.3     1  UNL1        0.2057
@<TRIPOS>BOND
     1    34    35    1
     2    35    33    1
     3    33    25    1
     4    25    26   ar
     5    26    27   ar
     6    27    28   ar
     7    28    24    1
     8    24    20    1
     9    20    21    2
    10    20    22   am
    11    22     1    1
    12     1     2   ar
    13     2     3   ar
    14     3     7    1
    15     7     8   ar
    16     8     9   ar
    17     9    10    1
    18     9    11   ar
    19    11    12   ar
    20    12    13    1
    21     3     4   ar
    22     4     5   ar
    23     5    14    1
    24    14    15   ar
    25    15    16   ar
    26    16    17   ar
    27    17    18   ar
    28    18    19   ar
    29     5     6   ar
    30    28    29   ar
    31    29    30   ar
    32    30    31    1
    33    31    32    1
    34    30    25   ar
    35     6     1   ar
    36    12     7   ar
    37    19    14   ar
    38    22    23    1
@<TRIPOS>MOLECULE
*****
 35 38 0 0 0
SMALL
GASTEIGER

@<TRIPOS>ATOM
      1 C          63.1754   87.2379   12.3937 C.ar    1  UNL1        0.1390
      2 C          62.4134   87.6114   11.1569 C.ar    1  UNL1        0.0733
      3 C          61.6939   86.5551   10.3716 C.ar    1  UNL1        0.1679
      4 N          61.7366   85.1253   10.8232 N.ar    1  UNL1       -0.2061
      5 C          62.4986   84.7518   12.0601 C.ar    1  UNL1        0.1828
      6 N          63.2180   85.8081   12.8453 N.ar    1  UNL1       -0.2101
      7 N          60.9319   86.9285    9.1348 N.ar    1  UNL1       -0.2164
      8 N          60.0902   88.1570    8.9551 N.ar    1  UNL1       -0.1684
      9 C          59.5159   88.1268    7.5697 C.ar    1  UNL1        0.0805
     10 C          58.6132   89.1620    6.9667 C.3     1  UNL1        0.0540
     11 C          60.0027   86.8797    6.8931 C.ar    1  UNL1        0.0312
     12 C          60.8779   86.1391    7.8604 C.ar    1  UNL1        0.0637
     13 C          61.5763   84.8376    7.5992 C.3     1  UNL1        0.0522
     14 C          62.5413   83.3221   12.5117 C.ar    1  UNL1        0.1171
     15 C          62.9468   82.2439   11.5509 C.ar    1  UNL1        0.0223
     16 C          62.9895   80.8141   12.0025 C.ar    1  UNL1        0.0032
     17 C          62.6265   80.4625   13.4149 C.ar    1  UNL1        0.0207
     18 C          62.2209   81.5407   14.3756 C.ar    1  UNL1        0.0989
     19 N          62.1783   82.9705   13.9240 N.ar    1  UNL1       -0.2407
     20 C          63.1626   89.5238   13.6286 C.2     1  UNL1        0.2316
     21 O          61.7109   89.6970   13.2928 O.2     1  UNL1       -0.2744
     22 N          63.8948   88.2942   13.1791 N.am    1  UNL1       -0.2689
     23 H          64.8476   88.1805   13.3994 H       1  UNL1        0.1563
     24 C          63.8820   90.5801   14.4139 C.3     1  UNL1        0.1118
     25 C          66.3239   93.6993   12.2790 C.ar    1  UNL1        0.1722
     26 C          65.2932   92.9099   11.5277 C.ar    1  UNL1        0.0397
     27 C          64.4793   91.8701   12.2393 C.ar    1  UNL1       -0.0005
     28 C          64.6959   91.6198   13.7022 C.ar    1  UNL1       -0.0099
     29 C          65.7265   92.4092   14.4536 C.ar    1  UNL1        0.0363
     30 C          66.5405   93.4490   13.7420 C.ar    1  UNL1        0.1721
     31 O          67.5712   94.2384   14.4934 O.3     1  UNL1       -0.4684
     32 C          68.2466   93.6408   15.6920 C.3     1  UNL1        0.2526
     33 O          67.1378   94.7390   11.5674 O.3     1  UNL1       -0.4724
     34 C          67.8989   94.3425    9.1152 C.3     1  UNL1        0.0512
     35 C          66.9485   94.9624   10.0963 C.3     1  UNL1        0.2057
@<TRIPOS>BOND
     1    34    35    1
     2    35    33    1
     3    33    25    1
     4    25    26   ar
     5    26    27   ar
     6    27    28   ar
     7    28    24    1
     8    24    20    1
     9    20    21    2
    10    20    22   am
    11    22     1    1
    12     1     2   ar
    13     2     3   ar
    14     3     7    1
    15     7     8   ar
    16     8     9   ar
    17     9    10    1
    18     9    11   ar
    19    11    12   ar
    20    12    13    1
    21     3     4   ar
    22     4     5   ar
    23     5    14    1
    24    14    15   ar
    25    15    16   ar
    26    16    17   ar
    27    17    18   ar
    28    18    19   ar
    29     5     6   ar
    30    28    29   ar
    31    29    30   ar
    32    30    31    1
    33    31    32    1
    34    30    25   ar
    35     6     1   ar
    36    12     7   ar
    37    19    14   ar
    38    22    23    1
@<TRIPOS>MOLECULE
*****
 35 38 0 0 0
SMALL
GASTEIGER

@<TRIPOS>ATOM
      1 C          63.1551   87.5261   12.8814 C.ar    1  UNL1        0.1390
      2 C          63.4021   86.0763   13.1768 C.ar    1  UNL1        0.0733
      3 C          62.8294   85.0198   12.2791 C.ar    1  UNL1        0.1679
      4 N          62.0098   85.4131   11.0860 N.ar    1  UNL1       -0.2061
      5 C          61.7628   86.8629   10.7906 C.ar    1  UNL1        0.1828
      6 N          62.3354   87.9193   11.6883 N.ar    1  UNL1       -0.2101
      7 N          63.0764   83.5701   12.5745 N.ar    1  UNL1       -0.2164
      8 N          62.5471   82.4075   11.7883 N.ar    1  UNL1       -0.1684
      9 C          63.0396   81.1473   12.4358 C.ar    1  UNL1        0.0805
     10 C          62.7494   79.7489   11.9774 C.3     1  UNL1        0.0540
     11 C          63.8734   81.5311   13.6224 C.ar    1  UNL1        0.0312
     12 C          63.8961   83.0284   13.7080 C.ar    1  UNL1        0.0637
     13 C          64.6126   83.8414   14.7451 C.3     1  UNL1        0.0522
     14 C          60.9431   87.2561    9.5975 C.ar    1  UNL1        0.1171
     15 C          60.3307   86.1991    8.7269 C.ar    1  UNL1        0.0223
     16 C          59.5110   86.5924    7.5338 C.ar    1  UNL1        0.0032
     17 C          59.3038   88.0426    7.2113 C.ar    1  UNL1        0.0207
     18 C          59.9163   89.0995    8.0818 C.ar    1  UNL1        0.0989
     19 N          60.7359   88.7063    9.2749 N.ar    1  UNL1       -0.2407
     20 C          62.9728   89.8574   14.0137 C.2     1  UNL1        0.2316
     21 O          61.6452   90.0756   13.3504 O.2     1  UNL1       -0.2744
     22 N          63.7278   88.5826   13.7792 N.am    1  UNL1       -0.2689
     23 H          64.5991   88.4393   14.2145 H       1  UNL1        0.1563
     24 C          63.5454   90.9139   14.9113 C.3     1  UNL1        0.1118
     25 C          67.8049   92.2603   14.3694 C.ar    1  UNL1        0.1722
     26 C          67.2702   91.9994   15.7463 C.ar    1  UNL1        0.0397
     27 C          65.8504   91.5506   15.9270 C.ar    1  UNL1       -0.0005
     28 C          64.9652   91.3627   14.7307 C.ar    1  UNL1       -0.0099
     29 C          65.4999   91.6236   13.3537 C.ar    1  UNL1        0.0363
     30 C          66.9197   92.0724   13.1731 C.ar    1  UNL1        0.1721
     31 O          67.4544   92.3333   11.7960 O.3     1  UNL1       -0.4684
     32 C          66.5098   92.6199   10.6666 C.3     1  UNL1        0.2526
     33 O          69.2247   92.7091   14.1887 O.3     1  UNL1       -0.4724
     34 C          69.4047   94.4956   16.0665 C.3     1  UNL1        0.0512
     35 C          69.9729   93.3125   15.3403 C.3     1  UNL1        0.2057
@<TRIPOS>BOND
     1    34    35    1
     2    35    33    1
     3    33    25    1
     4    25    26   ar
     5    26    27   ar
     6    27    28   ar
     7    28    24    1
     8    24    20    1
     9    20    21    2
    10    20    22   am
    11    22     1    1
    12     1     2   ar
    13     2     3   ar
    14     3     7    1
    15     7     8   ar
    16     8     9   ar
    17     9    10    1
    18     9    11   ar
    19    11    12   ar
    20    12    13    1
    21     3     4   ar
    22     4     5   ar
    23     5    14    1
    24    14    15   ar
    25    15    16   ar
    26    16    17   ar
    27    17    18   ar
    28    18    19   ar
    29     5     6   ar
    30    28    29   ar
    31    29    30   ar
    32    30    31    1
    33    31    32    1
    34    30    25   ar
    35     6     1   ar
    36    12     7   ar
    37    19    14   ar
    38    22    23    1
@<TRIPOS>MOLECULE
*****
 35 38 0 0 0
SMALL
GASTEIGER

@<TRIPOS>ATOM
      1 C          63.0834   86.6609   12.2540 C.ar    1  UNL1        0.1390
      2 C          62.6156   86.6886   10.8291 C.ar    1  UNL1        0.0733
      3 C          62.2290   85.4126   10.1417 C.ar    1  UNL1        0.1679
      4 N          62.3102   84.1090   10.8792 N.ar    1  UNL1       -0.2061
      5 C          62.7780   84.0814   12.3042 C.ar    1  UNL1        0.1828
      6 N          63.1646   85.3573   12.9915 N.ar    1  UNL1       -0.2101
      7 N          61.7612   85.4402    8.7168 N.ar    1  UNL1       -0.2164
      8 N          62.3667   84.6787    7.5751 N.ar    1  UNL1       -0.1684
      9 C          61.5856   85.0021    6.3361 C.ar    1  UNL1        0.0805
     10 C          61.8469   84.4594    4.9623 C.3     1  UNL1        0.0540
     11 C          60.4972   85.9635    6.7120 C.ar    1  UNL1        0.0312
     12 C          60.6058   86.2343    8.1833 C.ar    1  UNL1        0.0637
     13 C          59.7153   87.1401    8.9811 C.3     1  UNL1        0.0522
     14 C          62.8592   82.7778   13.0418 C.ar    1  UNL1        0.1171
     15 C          61.6591   81.8808   13.1138 C.ar    1  UNL1        0.0223
     16 C          61.7403   80.5771   13.8514 C.ar    1  UNL1        0.0032
     17 C          63.0216   80.1705   14.5169 C.ar    1  UNL1        0.0207
     18 C          64.2217   81.0675   14.4449 C.ar    1  UNL1        0.0989
     19 N          64.1405   82.3711   13.7073 N.ar    1  UNL1       -0.2407
     20 C          62.8256   89.2304   12.5393 C.2     1  UNL1        0.2316
     21 O          61.7946   89.2479   11.4499 O.2     1  UNL1       -0.2744
     22 N          63.4700   87.9369   12.9414 N.am    1  UNL1       -0.2689
     23 H          64.1466   87.9254   13.6564 H       1  UNL1        0.1563
     24 C          63.2121   90.5064   13.2267 C.3     1  UNL1        0.1118
     25 C          66.3292   93.1903   11.4017 C.ar    1  UNL1        0.1722
     26 C          65.2098   92.6582   10.5568 C.ar    1  UNL1        0.0397
     27 C          64.1708   91.7636   11.1651 C.ar    1  UNL1       -0.0005
     28 C          64.2511   91.4010   12.6184 C.ar    1  UNL1       -0.0099
     29 C          65.3705   91.9330   13.4633 C.ar    1  UNL1        0.0363
     30 C          66.4095   92.8276   12.8549 C.ar    1  UNL1        0.1721
     31 O          67.5289   93.3596   13.7000 O.3     1  UNL1       -0.4684
     32 C          68.2425   92.4520   14.6575 C.3     1  UNL1        0.2526
     33 O          67.3682   94.0849   10.7934 O.3     1  UNL1       -0.4724
     34 C          68.6025   92.3769    9.2738 C.3     1  UNL1        0.0512
     35 C          67.9843   93.7290    9.4729 C.3     1  UNL1        0.2057
@<TRIPOS>BOND
     1    34    35    1
     2    35    33    1
     3    33    25    1
     4    25    26   ar
     5    26    27   ar
     6    27    28   ar
     7    28    24    1
     8    24    20    1
     9    20    21    2
    10    20    22   am
    11    22     1    1
    12     1     2   ar
    13     2     3   ar
    14     3     7    1
    15     7     8   ar
    16     8     9   ar
    17     9    10    1
    18     9    11   ar
    19    11    12   ar
    20    12    13    1
    21     3     4   ar
    22     4     5   ar
    23     5    14    1
    24    14    15   ar
    25    15    16   ar
    26    16    17   ar
    27    17    18   ar
    28    18    19   ar
    29     5     6   ar
    30    28    29   ar
    31    29    30   ar
    32    30    31    1
    33    31    32    1
    34    30    25   ar
    35     6     1   ar
    36    12     7   ar
    37    19    14   ar
    38    22    23    1
@<TRIPOS>MOLECULE
*****
 35 38 0 0 0
SMALL
GASTEIGER

@<TRIPOS>ATOM
      1 C          62.9435   86.9653   12.0327 C.ar    1  UNL1        0.1390
      2 C          62.4841   86.8987   10.6064 C.ar    1  UNL1        0.0733
      3 C          62.1935   85.5702    9.9732 C.ar    1  UNL1        0.1679
      4 N          62.3623   84.3084   10.7665 N.ar    1  UNL1       -0.2061
      5 C          62.8217   84.3751   12.1929 C.ar    1  UNL1        0.1828
      6 N          63.1123   85.7035   12.8260 N.ar    1  UNL1       -0.2101
      7 N          61.7341   85.5036    8.5469 N.ar    1  UNL1       -0.2164
      8 N          62.4059   84.7483    7.4387 N.ar    1  UNL1       -0.1684
      9 C          61.6093   84.9585    6.1852 C.ar    1  UNL1        0.0805
     10 C          61.9219   84.3843    4.8351 C.3     1  UNL1        0.0540
     11 C          60.4451   85.8438    6.5187 C.ar    1  UNL1        0.0312
     12 C          60.5223   86.1806    7.9783 C.ar    1  UNL1        0.0637
     13 C          59.5572   87.0431    8.7363 C.3     1  UNL1        0.0522
     14 C          62.9905   83.1133   12.9862 C.ar    1  UNL1        0.1171
     15 C          61.8430   82.5706   13.7855 C.ar    1  UNL1        0.0223
     16 C          62.0118   81.3088   14.5787 C.ar    1  UNL1        0.0032
     17 C          63.3282   80.5896   14.5728 C.ar    1  UNL1        0.0207
     18 C          64.4756   81.1323   13.7736 C.ar    1  UNL1        0.0989
     19 N          64.3068   82.3941   12.9803 N.ar    1  UNL1       -0.2407
     20 C          62.5734   89.5346   12.1425 C.2     1  UNL1        0.2316
     21 O          61.6220   89.4469   10.9860 O.2     1  UNL1       -0.2744
     22 N          63.2341   88.2938   12.6658 N.am    1  UNL1       -0.2689
     23 H          63.8584   88.3513   13.4248 H       1  UNL1        0.1563
     24 C          62.8639   90.8630   12.7755 C.3     1  UNL1        0.1118
     25 C          67.1178   92.0873   13.5855 C.ar    1  UNL1        0.1722
     26 C          66.3742   91.2523   14.5855 C.ar    1  UNL1        0.0397
     27 C          64.9563   90.8443   14.3155 C.ar    1  UNL1       -0.0005
     28 C          64.2819   91.2711   13.0455 C.ar    1  UNL1       -0.0099
     29 C          65.0254   92.1060   12.0455 C.ar    1  UNL1        0.0363
     30 C          66.4433   92.5141   12.3155 C.ar    1  UNL1        0.1721
     31 O          67.1868   93.3491   11.3154 O.3     1  UNL1       -0.4684
     32 C          66.5191   94.5345   10.6838 C.3     1  UNL1        0.2526
     33 O          68.5357   92.4953   13.8555 O.3     1  UNL1       -0.4724
     34 C          68.7244   93.9363   16.0091 C.3     1  UNL1        0.0512
     35 C          69.0116   92.6642   15.2679 C.3     1  UNL1        0.2057
@<TRIPOS>BOND
     1    34    35    1
     2    35    33    1
     3    33    25    1
     4    25    26   ar
     5    26    27   ar
     6    27    28   ar
     7    28    24    1
     8    24    20    1
     9    20    21    2
    10    20    22   am
    11    22     1    1
    12     1     2   ar
    13     2     3   ar
    14     3     7    1
    15     7     8   ar
    16     8     9   ar
    17     9    10    1
    18     9    11   ar
    19    11    12   ar
    20    12    13    1
    21     3     4   ar
    22     4     5   ar
    23     5    14    1
    24    14    15   ar
    25    15    16   ar
    26    16    17   ar
    27    17    18   ar
    28    18    19   ar
    29     5     6   ar
    30    28    29   ar
    31    29    30   ar
    32    30    31    1
    33    31    32    1
    34    30    25   ar
    35     6     1   ar
    36    12     7   ar
    37    19    14   ar
    38    22    23    1
@<TRIPOS>MOLECULE
*****
 35 38 0 0 0
SMALL
GASTEIGER

@<TRIPOS>ATOM
      1 C          64.2412   91.6724   11.6824 C.ar    1  UNL1        0.1390
      2 C          65.0488   91.6094   12.9448 C.ar    1  UNL1        0.0733
      3 C          66.1820   92.5686   13.1588 C.ar    1  UNL1        0.1679
      4 N          66.5077   93.5907   12.1103 N.ar    1  UNL1       -0.2061
      5 C          65.7000   93.6536   10.8479 C.ar    1  UNL1        0.1828
      6 N          64.5668   92.6944   10.6339 N.ar    1  UNL1       -0.2101
      7 N          66.9896   92.5057   14.4213 N.ar    1  UNL1       -0.2164
      8 N          68.4857   92.5598   14.5144 N.ar    1  UNL1       -0.1684
      9 C          68.8637   92.4652   15.9629 C.ar    1  UNL1        0.0805
     10 C          70.2592   92.4804   16.5129 C.3     1  UNL1        0.0540
     11 C          67.6011   92.3526   16.7651 C.ar    1  UNL1        0.0312
     12 C          66.4429   92.3777   15.8122 C.ar    1  UNL1        0.0637
     13 C          64.9926   92.2901   16.1849 C.3     1  UNL1        0.0522
     14 C          66.0256   94.6757    9.7994 C.ar    1  UNL1        0.1171
     15 C          67.2760   94.5395    8.9819 C.ar    1  UNL1        0.0223
     16 C          67.6016   95.5615    7.9334 C.ar    1  UNL1        0.0032
     17 C          66.6768   96.7198    7.7024 C.ar    1  UNL1        0.0207
     18 C          65.4266   96.8560    8.5198 C.ar    1  UNL1        0.0989
     19 N          65.1009   95.8339    9.5683 N.ar    1  UNL1       -0.2407
     20 C          62.4243   90.0851   12.6466 C.2     1  UNL1        0.2316
     21 O          62.8740   90.4163   14.0389 O.2     1  UNL1       -0.2744
     22 N          63.1079   90.7132   11.4684 N.am    1  UNL1       -0.2689
     23 H          62.8128   90.4959   10.5547 H       1  UNL1        0.1563
     24 C          61.2911   89.1260   12.4327 C.3     1  UNL1        0.1118
     25 C          61.0461   86.7468    8.6209 C.ar    1  UNL1        0.1722
     26 C          62.0794   86.4052    9.6532 C.ar    1  UNL1        0.0397
     27 C          62.1610   87.1982   10.9238 C.ar    1  UNL1       -0.0005
     28 C          61.2094   88.3329   11.1621 C.ar    1  UNL1       -0.0099
     29 C          60.1762   88.6746   10.1298 C.ar    1  UNL1        0.0363
     30 C          60.0946   87.8815    8.8592 C.ar    1  UNL1        0.1721
     31 O          59.0612   88.2233    7.8269 O.3     1  UNL1       -0.4684
     32 C          59.3659   89.2428    6.7697 C.3     1  UNL1        0.2526
     33 O          60.9645   85.9538    7.3503 O.3     1  UNL1       -0.4724
     34 C          61.9488   84.1515    5.7588 C.3     1  UNL1        0.0512
     35 C          62.0701   85.0087    6.9837 C.3     1  UNL1        0.2057
@<TRIPOS>BOND
     1    34    35    1
     2    35    33    1
     3    33    25    1
     4    25    26   ar
     5    26    27   ar
     6    27    28   ar
     7    28    24    1
     8    24    20    1
     9    20    21    2
    10    20    22   am
    11    22     1    1
    12     1     2   ar
    13     2     3   ar
    14     3     7    1
    15     7     8   ar
    16     8     9   ar
    17     9    10    1
    18     9    11   ar
    19    11    12   ar
    20    12    13    1
    21     3     4   ar
    22     4     5   ar
    23     5    14    1
    24    14    15   ar
    25    15    16   ar
    26    16    17   ar
    27    17    18   ar
    28    18    19   ar
    29     5     6   ar
    30    28    29   ar
    31    29    30   ar
    32    30    31    1
    33    31    32    1
    34    30    25   ar
    35     6     1   ar
    36    12     7   ar
    37    19    14   ar
    38    22    23    1
