@<TRIPOS>MOLECULE
*****
 30 33 0 0 0
SMALL
GASTEIGER

@<TRIPOS>ATOM
      1 C          63.4059   89.2176   15.5169 C.2     1  UNL1        0.2881
      2 O          63.2857   89.6992   16.9324 O.2     1  UNL1       -0.2664
      3 N          63.4346   87.7465   15.2251 N.am    1  UNL1       -0.2717
      4 C          63.5548   87.2649   13.8096 C.3     1  UNL1        0.1153
      5 C          63.5835   85.7939   13.5178 C.3     1  UNL1        0.1152
      6 N          63.4920   84.8045   14.6415 N.am    1  UNL1       -0.2726
      7 C          63.5207   83.3334   14.3497 C.2     1  UNL1        0.2491
      8 O          63.4291   82.3439   15.4734 O.2     1  UNL1       -0.2699
      9 C          63.3717   85.2861   16.0569 C.3     1  UNL1        0.1135
     10 C          63.3430   86.7572   16.3488 C.3     1  UNL1        0.0956
     11 C          63.2228   87.2388   17.7643 C.3     1  UNL1        0.0233
     12 C          63.6409   82.8518   12.9343 C.ar    1  UNL1        0.0536
     13 C          62.8603   81.6539   12.4807 C.ar    1  UNL1        0.0045
     14 C          62.9805   81.1723   11.0652 C.ar    1  UNL1        0.0001
     15 C          63.8814   81.8886   10.1032 C.ar    1  UNL1        0.0000
     16 C          64.6620   83.0864   10.5568 C.ar    1  UNL1        0.0001
     17 C          64.5418   83.5680   11.9723 C.ar    1  UNL1        0.0045
     18 C          63.4975   90.2071   14.3932 C.2     1  UNL1        0.2494
     19 O          62.4815   90.1851   13.2900 O.2     1  UNL1       -0.2819
     20 C          64.7756   91.8231   11.7052 C.2     1  UNL1        0.1360
     21 C          65.5050   92.6572   10.6942 C.2     1  UNL1        0.0837
     22 C          66.6016   93.5810   11.1347 C.2     1  UNL1        0.2385
     23 N          66.9688   93.6706   12.5863 N.2     1  UNL1       -0.0338
     24 C          66.2394   92.8365   13.5973 C.2     1  UNL1        0.3626
     25 N          66.3793   92.7132   15.0857 N.2     1  UNL1       -0.0341
     26 C          65.3693   91.7132   15.5650 C.2     1  UNL1        0.2356
     27 C          64.6050   91.2185   14.3729 C.2     1  UNL1        0.0868
     28 C          65.1428   91.9127   13.1568 C.3     1  UNL1        0.1975
     29 C          62.9291   91.1768    9.9956 C.3     1  UNL1        0.2520
     30 O          63.6790   90.8993   11.2646 O.2     1  UNL1       -0.4746
@<TRIPOS>BOND
     1    29    30    1
     2    30    20    1
     3    20    21    2
     4    21    22    1
     5    22    23    2
     6    23    24    1
     7    24    25    2
     8    25    26    1
     9    26    27    2
    10    27    18    1
    11    18    19    2
    12    18     1    1
    13     1     2    2
    14     1     3   am
    15     3     4    1
    16     4     5    1
    17     5     6    1
    18     6     7   am
    19     7     8    2
    20     7    12    1
    21    12    13   ar
    22    13    14   ar
    23    14    15   ar
    24    15    16   ar
    25    16    17   ar
    26     6     9    1
    27     9    10    1
    28    10    11    1
    29    27    28    1
    30    28    20    1
    31    28    24    1
    32    10     3    1
    33    17    12   ar
@<TRIPOS>MOLECULE
*****
 30 33 0 0 0
SMALL
GASTEIGER

@<TRIPOS>ATOM
      1 C          63.0834   89.0492   12.0789 C.2     1  UNL1        0.2881
      2 O          63.4309   87.8822   12.9549 O.2     1  UNL1       -0.2664
      3 N          62.1799   88.8571   10.8971 N.am    1  UNL1       -0.2717
      4 C          61.8323   90.0241   10.0212 C.3     1  UNL1        0.1153
      5 C          60.9288   89.8320    8.8393 C.3     1  UNL1        0.1152
      6 N          60.3728   88.4729    8.5335 N.am    1  UNL1       -0.2726
      7 C          59.4693   88.2807    7.3517 C.2     1  UNL1        0.2491
      8 O          58.9132   86.9215    7.0458 O.2     1  UNL1       -0.2699
      9 C          60.7203   87.3058    9.4095 C.3     1  UNL1        0.1135
     10 C          61.6239   87.4980   10.5913 C.3     1  UNL1        0.0956
     11 C          61.9714   86.3309   11.4672 C.3     1  UNL1        0.0233
     12 C          59.1218   89.4477    6.4757 C.ar    1  UNL1        0.0536
     13 C          57.6874   89.8455    6.2904 C.ar    1  UNL1        0.0045
     14 C          57.3399   91.0125    5.4145 C.ar    1  UNL1        0.0001
     15 C          58.4268   91.7818    4.7238 C.ar    1  UNL1        0.0000
     16 C          59.8611   91.3839    4.9091 C.ar    1  UNL1        0.0001
     17 C          60.2086   90.2169    5.7851 C.ar    1  UNL1        0.0045
     18 C          63.6395   90.4084   12.3848 C.2     1  UNL1        0.2494
     19 O          63.8762   91.3890   11.2748 O.2     1  UNL1       -0.2819
     20 C          66.2457   92.2655   13.4934 C.2     1  UNL1        0.1360
     21 C          67.2938   93.0466   14.2292 C.2     1  UNL1        0.0837
     22 C          67.2230   93.1757   15.7220 C.2     1  UNL1        0.2385
     23 N          66.1041   92.5238   16.4789 N.2     1  UNL1       -0.0338
     24 C          65.0560   91.7427   15.7431 C.2     1  UNL1        0.3626
     25 N          63.8442   90.9958   16.2160 N.2     1  UNL1       -0.0341
     26 C          63.1660   90.4050   15.0156 C.2     1  UNL1        0.2356
     27 C          63.9587   90.7869   13.8008 C.2     1  UNL1        0.0868
     28 C          65.1268   91.6136   14.2504 C.3     1  UNL1        0.1975
     29 C          66.6414   93.3346   11.1588 C.3     1  UNL1        0.2520
     30 O          66.3165   92.1364   12.0007 O.2     1  UNL1       -0.4746
@<TRIPOS>BOND
     1    29    30    1
     2    30    20    1
     3    20    21    2
     4    21    22    1
     5    22    23    2
     6    23    24    1
     7    24    25    2
     8    25    26    1
     9    26    27    2
    10    27    18    1
    11    18    19    2
    12    18     1    1
    13     1     2    2
    14     1     3   am
    15     3     4    1
    16     4     5    1
    17     5     6    1
    18     6     7   am
    19     7     8    2
    20     7    12    1
    21    12    13   ar
    22    13    14   ar
    23    14    15   ar
    24    15    16   ar
    25    16    17   ar
    26     6     9    1
    27     9    10    1
    28    10    11    1
    29    27    28    1
    30    28    20    1
    31    28    24    1
    32    10     3    1
    33    17    12   ar
@<TRIPOS>MOLECULE
*****
 30 33 0 0 0
SMALL
GASTEIGER

@<TRIPOS>ATOM
      1 C          63.5678   84.8484   15.5896 C.2     1  UNL1        0.2881
      2 O          62.7389   84.1517   16.6277 O.2     1  UNL1       -0.2664
      3 N          63.6764   86.3444   15.5965 N.am    1  UNL1       -0.2717
      4 C          64.5053   87.0410   14.5585 C.3     1  UNL1        0.1153
      5 C          64.6139   88.5371   14.5653 C.3     1  UNL1        0.1152
      6 N          63.8935   89.3364   15.6103 N.am    1  UNL1       -0.2726
      7 C          64.0020   90.8325   15.6173 C.2     1  UNL1        0.2491
      8 O          63.2816   91.6320   16.6622 O.2     1  UNL1       -0.2699
      9 C          63.0646   88.6398   16.6484 C.3     1  UNL1        0.1135
     10 C          62.9560   87.1438   16.6415 C.3     1  UNL1        0.0956
     11 C          62.1271   86.4472   17.6796 C.3     1  UNL1        0.0233
     12 C          64.8309   91.5292   14.5792 C.ar    1  UNL1        0.0536
     13 C          64.3668   91.5719   13.1535 C.ar    1  UNL1        0.0045
     14 C          65.1957   92.2685   12.1154 C.ar    1  UNL1        0.0001
     15 C          66.4888   92.9224   12.5031 C.ar    1  UNL1        0.0000
     16 C          66.9529   92.8797   13.9288 C.ar    1  UNL1        0.0001
     17 C          66.1240   92.1831   14.9669 C.ar    1  UNL1        0.0045
     18 C          64.2883   84.0489   14.5446 C.2     1  UNL1        0.2494
     19 O          65.4744   84.6347   13.8378 O.2     1  UNL1       -0.2819
     20 C          63.5848   82.7922   11.4793 C.2     1  UNL1        0.1360
     21 C          63.2158   82.0080   10.2551 C.2     1  UNL1        0.0837
     22 C          62.7833   80.5774   10.3829 C.2     1  UNL1        0.2385
     23 N          62.7196   79.9311   11.7350 N.2     1  UNL1       -0.0338
     24 C          63.0885   80.7154   12.9592 C.2     1  UNL1        0.3626
     25 N          63.1225   80.3491   14.4134 N.2     1  UNL1       -0.0341
     26 C          63.5760   81.5532   15.1844 C.2     1  UNL1        0.2356
     27 C          63.8224   82.6637   14.2066 C.2     1  UNL1        0.0868
     28 C          63.5211   82.1459   12.8314 C.3     1  UNL1        0.1975
     29 C          62.9922   85.3177   11.3345 C.3     1  UNL1        0.2520
     30 O          64.0173   84.2228   11.3515 O.2     1  UNL1       -0.4746
@<TRIPOS>BOND
     1    29    30    1
     2    30    20    1
     3    20    21    2
     4    21    22    1
     5    22    23    2
     6    23    24    1
     7    24    25    2
     8    25    26    1
     9    26    27    2
    10    27    18    1
    11    18    19    2
    12    18     1    1
    13     1     2    2
    14     1     3   am
    15     3     4    1
    16     4     5    1
    17     5     6    1
    18     6     7   am
    19     7     8    2
    20     7    12    1
    21    12    13   ar
    22    13    14   ar
    23    14    15   ar
    24    15    16   ar
    25    16    17   ar
    26     6     9    1
    27     9    10    1
    28    10    11    1
    29    27    28    1
    30    28    20    1
    31    28    24    1
    32    10     3    1
    33    17    12   ar
@<TRIPOS>MOLECULE
*****
 30 33 0 0 0
SMALL
GASTEIGER

@<TRIPOS>ATOM
      1 C          63.3601   89.1824   13.1050 C.2     1  UNL1        0.2881
      2 O          63.2185   88.6812   14.5117 O.2     1  UNL1       -0.2664
      3 N          64.0679   90.4777   12.8381 N.am    1  UNL1       -0.2717
      4 C          64.2095   90.9789   11.4314 C.3     1  UNL1        0.1153
      5 C          64.9172   92.2743   11.1644 C.3     1  UNL1        0.1152
      6 N          65.4833   93.0683   12.3042 N.am    1  UNL1       -0.2726
      7 C          66.1910   94.3637   12.0373 C.2     1  UNL1        0.2491
      8 O          66.7571   95.1578   13.1770 O.2     1  UNL1       -0.2699
      9 C          65.3416   92.5671   13.7108 C.3     1  UNL1        0.1135
     10 C          64.6339   91.2718   13.9778 C.3     1  UNL1        0.0956
     11 C          64.4923   90.7706   15.3845 C.3     1  UNL1        0.0233
     12 C          66.3327   94.8649   10.6306 C.ar    1  UNL1        0.0536
     13 C          67.2929   94.1990    9.6902 C.ar    1  UNL1        0.0045
     14 C          67.4346   94.7002    8.2836 C.ar    1  UNL1        0.0001
     15 C          66.6159   95.8674    7.8172 C.ar    1  UNL1        0.0000
     16 C          65.6557   96.5333    8.7576 C.ar    1  UNL1        0.0001
     17 C          65.5140   96.0321   10.1643 C.ar    1  UNL1        0.0045
     18 C          62.7940   88.3883   11.9653 C.2     1  UNL1        0.2494
     19 O          63.3012   87.0036   11.6912 O.2     1  UNL1       -0.2819
     20 C          61.3230   86.9948    9.2515 C.2     1  UNL1        0.1360
     21 C          60.5292   86.6068    8.0394 C.2     1  UNL1        0.0837
     22 C          59.5067   87.5505    7.4789 C.2     1  UNL1        0.2385
     23 N          59.2781   88.8820    8.1305 N.2     1  UNL1       -0.0338
     24 C          60.0720   89.2700    9.3426 C.2     1  UNL1        0.3626
     25 N          60.0664   90.5057   10.1928 N.2     1  UNL1       -0.0341
     26 C          61.0854   90.3259   11.2788 C.2     1  UNL1        0.2356
     27 C          61.7208   88.9789   11.0997 C.2     1  UNL1        0.0868
     28 C          61.0944   88.3263    9.9031 C.3     1  UNL1        0.1975
     29 C          63.0533   85.0878    8.9060 C.3     1  UNL1        0.2520
     30 O          62.3455   86.0511    9.8120 O.2     1  UNL1       -0.4746
@<TRIPOS>BOND
     1    29    30    1
     2    30    20    1
     3    20    21    2
     4    21    22    1
     5    22    23    2
     6    23    24    1
     7    24    25    2
     8    25    26    1
     9    26    27    2
    10    27    18    1
    11    18    19    2
    12    18     1    1
    13     1     2    2
    14     1     3   am
    15     3     4    1
    16     4     5    1
    17     5     6    1
    18     6     7   am
    19     7     8    2
    20     7    12    1
    21    12    13   ar
    22    13    14   ar
    23    14    15   ar
    24    15    16   ar
    25    16    17   ar
    26     6     9    1
    27     9    10    1
    28    10    11    1
    29    27    28    1
    30    28    20    1
    31    28    24    1
    32    10     3    1
    33    17    12   ar
@<TRIPOS>MOLECULE
*****
 30 33 0 0 0
SMALL
GASTEIGER

@<TRIPOS>ATOM
      1 C          62.3609   86.6700   11.6829 C.2     1  UNL1        0.2881
      2 O          61.3672   86.5226   10.5690 O.2     1  UNL1       -0.2664
      3 N          62.9909   88.0039   11.9545 N.am    1  UNL1       -0.2717
      4 C          63.9846   88.1512   13.0684 C.3     1  UNL1        0.1153
      5 C          64.6146   89.4851   13.3399 C.3     1  UNL1        0.1152
      6 N          64.2509   90.6717   12.4975 N.am    1  UNL1       -0.2726
      7 C          64.8809   92.0057   12.7689 C.2     1  UNL1        0.2491
      8 O          64.5172   93.1923   11.9265 O.2     1  UNL1       -0.2699
      9 C          63.2572   90.5243   11.3835 C.3     1  UNL1        0.1135
     10 C          62.6272   89.1904   11.1120 C.3     1  UNL1        0.0956
     11 C          61.6335   89.0431    9.9981 C.3     1  UNL1        0.0233
     12 C          65.8746   92.1530   13.8829 C.ar    1  UNL1        0.0536
     13 C          65.3993   92.3957   15.2847 C.ar    1  UNL1        0.0045
     14 C          66.3930   92.5430   16.3987 C.ar    1  UNL1        0.0001
     15 C          67.8620   92.4476   16.1108 C.ar    1  UNL1        0.0000
     16 C          68.3373   92.2049   14.7090 C.ar    1  UNL1        0.0001
     17 C          67.3436   92.0576   13.5950 C.ar    1  UNL1        0.0045
     18 C          62.7246   85.4833   12.5254 C.2     1  UNL1        0.2494
     19 O          62.8479   85.6293   14.0131 O.2     1  UNL1       -0.2819
     20 C          62.1229   82.4149   13.8266 C.2     1  UNL1        0.1360
     21 C          61.9521   80.9642   14.1676 C.2     1  UNL1        0.0837
     22 C          62.3420   79.9094   13.1749 C.2     1  UNL1        0.2385
     23 N          62.9027   80.3054   11.8412 N.2     1  UNL1       -0.0338
     24 C          63.0735   81.7560   11.5002 C.2     1  UNL1        0.3626
     25 N          63.5957   82.4441   10.2739 N.2     1  UNL1       -0.0341
     26 C          63.5286   83.9241   10.5086 C.2     1  UNL1        0.2356
     27 C          62.9649   84.1507   11.8801 C.2     1  UNL1        0.0868
     28 C          62.6836   82.8108   12.4929 C.3     1  UNL1        0.1975
     29 C          62.6282   83.7703   15.9847 C.3     1  UNL1        0.2520
     30 O          61.7330   83.4696   14.8193 O.2     1  UNL1       -0.4746
@<TRIPOS>BOND
     1    29    30    1
     2    30    20    1
     3    20    21    2
     4    21    22    1
     5    22    23    2
     6    23    24    1
     7    24    25    2
     8    25    26    1
     9    26    27    2
    10    27    18    1
    11    18    19    2
    12    18     1    1
    13     1     2    2
    14     1     3   am
    15     3     4    1
    16     4     5    1
    17     5     6    1
    18     6     7   am
    19     7     8    2
    20     7    12    1
    21    12    13   ar
    22    13    14   ar
    23    14    15   ar
    24    15    16   ar
    25    16    17   ar
    26     6     9    1
    27     9    10    1
    28    10    11    1
    29    27    28    1
    30    28    20    1
    31    28    24    1
    32    10     3    1
    33    17    12   ar
@<TRIPOS>MOLECULE
*****
 30 33 0 0 0
SMALL
GASTEIGER

@<TRIPOS>ATOM
      1 C          62.8505   85.5812   12.7147 C.2     1  UNL1        0.2881
      2 O          61.8369   85.1450   11.6986 O.2     1  UNL1       -0.2664
      3 N          63.2514   87.0240   12.8025 N.am    1  UNL1       -0.2717
      4 C          64.2650   87.4603   13.8185 C.3     1  UNL1        0.1153
      5 C          64.6659   88.9030   13.9063 C.3     1  UNL1        0.1152
      6 N          64.0532   89.9094   12.9780 N.am    1  UNL1       -0.2726
      7 C          64.4541   91.3522   13.0658 C.2     1  UNL1        0.2491
      8 O          63.8414   92.3587   12.1376 O.2     1  UNL1       -0.2699
      9 C          63.0396   89.4732   11.9620 C.3     1  UNL1        0.1135
     10 C          62.6387   88.0304   11.8742 C.3     1  UNL1        0.0956
     11 C          61.6251   87.5941   10.8582 C.3     1  UNL1        0.0233
     12 C          65.4676   91.7885   14.0818 C.ar    1  UNL1        0.0536
     13 C          66.8989   91.9833   13.6776 C.ar    1  UNL1        0.0045
     14 C          67.9125   92.4196   14.6937 C.ar    1  UNL1        0.0001
     15 C          67.4948   92.6611   16.1140 C.ar    1  UNL1        0.0000
     16 C          66.0635   92.4663   16.5181 C.ar    1  UNL1        0.0001
     17 C          65.0499   92.0300   15.5021 C.ar    1  UNL1        0.0045
     18 C          63.4632   84.5747   13.6429 C.2     1  UNL1        0.2494
     19 O          64.6316   84.9597   14.5010 O.2     1  UNL1       -0.2819
     20 C          63.6144   82.1636   11.2694 C.2     1  UNL1        0.1360
     21 C          63.5451   80.9457   10.3965 C.2     1  UNL1        0.0837
     22 C          62.8577   79.7072   10.8903 C.2     1  UNL1        0.2385
     23 N          62.2396   79.6867   12.2568 N.2     1  UNL1       -0.0338
     24 C          62.3089   80.9046   13.1296 C.2     1  UNL1        0.3626
     25 N          61.7952   81.1794   14.5119 N.2     1  UNL1       -0.0341
     26 C          62.1650   82.5877   14.8724 C.2     1  UNL1        0.2356
     27 C          62.9073   83.1832   13.7130 C.2     1  UNL1        0.0868
     28 C          62.9963   82.1430   12.6359 C.3     1  UNL1        0.1975
     29 C          63.9085   84.0039    9.4592 C.3     1  UNL1        0.2520
     30 O          64.3017   83.4020   10.7756 O.2     1  UNL1       -0.4746
@<TRIPOS>BOND
     1    29    30    1
     2    30    20    1
     3    20    21    2
     4    21    22    1
     5    22    23    2
     6    23    24    1
     7    24    25    2
     8    25    26    1
     9    26    27    2
    10    27    18    1
    11    18    19    2
    12    18     1    1
    13     1     2    2
    14     1     3   am
    15     3     4    1
    16     4     5    1
    17     5     6    1
    18     6     7   am
    19     7     8    2
    20     7    12    1
    21    12    13   ar
    22    13    14   ar
    23    14    15   ar
    24    15    16   ar
    25    16    17   ar
    26     6     9    1
    27     9    10    1
    28    10    11    1
    29    27    28    1
    30    28    20    1
    31    28    24    1
    32    10     3    1
    33    17    12   ar
@<TRIPOS>MOLECULE
*****
 30 33 0 0 0
SMALL
GASTEIGER

@<TRIPOS>ATOM
      1 C          64.1208   89.0497   14.8182 C.2     1  UNL1        0.2881
      2 O          64.5630   88.7169   16.2123 O.2     1  UNL1       -0.2664
      3 N          63.7438   87.9514   13.8686 N.am    1  UNL1       -0.2717
      4 C          63.3016   88.2842   12.4745 C.3     1  UNL1        0.1153
      5 C          62.9245   87.1859   11.5249 C.3     1  UNL1        0.1152
      6 N          62.9896   85.7549   11.9697 N.am    1  UNL1       -0.2726
      7 C          62.6126   84.6565   11.0202 C.2     1  UNL1        0.2491
      8 O          62.6777   83.2254   11.4649 O.2     1  UNL1       -0.2699
      9 C          63.4318   85.4221   13.3639 C.3     1  UNL1        0.1135
     10 C          63.8089   86.5204   14.3134 C.3     1  UNL1        0.0956
     11 C          64.2510   86.1876   15.7076 C.3     1  UNL1        0.0233
     12 C          62.1704   84.9893    9.6260 C.ar    1  UNL1        0.0536
     13 C          62.9764   84.5197    8.4514 C.ar    1  UNL1        0.0045
     14 C          62.5343   84.8525    7.0572 C.ar    1  UNL1        0.0001
     15 C          61.2861   85.6549    6.8376 C.ar    1  UNL1        0.0000
     16 C          60.4801   86.1245    8.0123 C.ar    1  UNL1        0.0001
     17 C          60.9222   85.7917    9.4065 C.ar    1  UNL1        0.0045
     18 C          64.0557   90.4809   14.3734 C.2     1  UNL1        0.2494
     19 O          62.7370   91.1944   14.3332 O.2     1  UNL1       -0.2819
     20 C          64.6919   92.0404   11.4352 C.2     1  UNL1        0.1360
     21 C          65.2140   92.7868   10.2435 C.2     1  UNL1        0.0837
     22 C          66.5955   93.3707   10.2705 C.2     1  UNL1        0.2385
     23 N          67.4548   93.2082   11.4891 N.2     1  UNL1       -0.0338
     24 C          66.9326   92.4617   12.6808 C.2     1  UNL1        0.3626
     25 N          67.5446   92.1430   14.0127 N.2     1  UNL1       -0.0341
     26 C          66.5414   91.3622   14.8089 C.2     1  UNL1        0.2356
     27 C          65.3094   91.1983   13.9691 C.2     1  UNL1        0.0868
     28 C          65.5512   91.8779   12.6538 C.3     1  UNL1        0.1975
     29 C          62.7475   90.9208   10.1253 C.3     1  UNL1        0.2520
     30 O          63.3105   91.4566   11.4082 O.2     1  UNL1       -0.4746
@<TRIPOS>BOND
     1    29    30    1
     2    30    20    1
     3    20    21    2
     4    21    22    1
     5    22    23    2
     6    23    24    1
     7    24    25    2
     8    25    26    1
     9    26    27    2
    10    27    18    1
    11    18    19    2
    12    18     1    1
    13     1     2    2
    14     1     3   am
    15     3     4    1
    16     4     5    1
    17     5     6    1
    18     6     7   am
    19     7     8    2
    20     7    12    1
    21    12    13   ar
    22    13    14   ar
    23    14    15   ar
    24    15    16   ar
    25    16    17   ar
    26     6     9    1
    27     9    10    1
    28    10    11    1
    29    27    28    1
    30    28    20    1
    31    28    24    1
    32    10     3    1
    33    17    12   ar
@<TRIPOS>MOLECULE
*****
 30 33 0 0 0
SMALL
GASTEIGER

@<TRIPOS>ATOM
      1 C          63.3047   90.8923   11.7705 C.2     1  UNL1        0.2881
      2 O          62.8247   91.8440   10.7151 O.2     1  UNL1       -0.2664
      3 N          63.0482   89.4214   11.6267 N.am    1  UNL1       -0.2717
      4 C          63.5282   88.4697   12.6821 C.3     1  UNL1        0.1153
      5 C          63.2717   86.9988   12.5384 C.3     1  UNL1        0.1152
      6 N          62.5352   86.4797   11.3392 N.am    1  UNL1       -0.2726
      7 C          62.2787   85.0088   11.1954 C.2     1  UNL1        0.2491
      8 O          61.5421   84.4896    9.9963 O.2     1  UNL1       -0.2699
      9 C          62.0552   87.4314   10.2838 C.3     1  UNL1        0.1135
     10 C          62.3117   88.9023   10.4276 C.3     1  UNL1        0.0956
     11 C          61.8317   89.8540    9.3722 C.3     1  UNL1        0.0233
     12 C          62.7587   84.0571   12.2508 C.ar    1  UNL1        0.0536
     13 C          63.7131   82.9573   11.8910 C.ar    1  UNL1        0.0045
     14 C          64.1931   82.0056   12.9464 C.ar    1  UNL1        0.0001
     15 C          63.7187   82.1537   14.3617 C.ar    1  UNL1        0.0000
     16 C          62.7642   83.2535   14.7214 C.ar    1  UNL1        0.0001
     17 C          62.2842   84.2052   13.6661 C.ar    1  UNL1        0.0045
     18 C          64.0413   91.4115   12.9697 C.2     1  UNL1        0.2494
     19 O          63.3436   91.5095   14.2939 O.2     1  UNL1       -0.2819
     20 C          66.2230   92.0957   15.4682 C.2     1  UNL1        0.1360
     21 C          67.3647   92.4472   16.3752 C.2     1  UNL1        0.0837
     22 C          68.6937   92.8300   15.7944 C.2     1  UNL1        0.2385
     23 N          68.8809   92.8613   14.3065 N.2     1  UNL1       -0.0338
     24 C          67.7392   92.5097   13.3994 C.2     1  UNL1        0.3626
     25 N          67.6258   92.4521   11.9048 N.2     1  UNL1       -0.0341
     26 C          66.2267   92.0337   11.5619 C.2     1  UNL1        0.2356
     27 C          65.4755   91.8327   12.8446 C.2     1  UNL1        0.0868
     28 C          66.4103   92.1269   13.9802 C.3     1  UNL1        0.1975
     29 C          64.3592   92.4445   17.2442 C.3     1  UNL1        0.2520
     30 O          64.8941   91.7129   16.0490 O.2     1  UNL1       -0.4746
@<TRIPOS>BOND
     1    29    30    1
     2    30    20    1
     3    20    21    2
     4    21    22    1
     5    22    23    2
     6    23    24    1
     7    24    25    2
     8    25    26    1
     9    26    27    2
    10    27    18    1
    11    18    19    2
    12    18     1    1
    13     1     2    2
    14     1     3   am
    15     3     4    1
    16     4     5    1
    17     5     6    1
    18     6     7   am
    19     7     8    2
    20     7    12    1
    21    12    13   ar
    22    13    14   ar
    23    14    15   ar
    24    15    16   ar
    25    16    17   ar
    26     6     9    1
    27     9    10    1
    28    10    11    1
    29    27    28    1
    30    28    20    1
    31    28    24    1
    32    10     3    1
    33    17    12   ar
@<TRIPOS>MOLECULE
*****
 30 33 0 0 0
SMALL
GASTEIGER

@<TRIPOS>ATOM
      1 C          61.9662   88.3284   10.4292 C.2     1  UNL1        0.2881
      2 O          61.1792   88.5337    9.1688 O.2     1  UNL1       -0.2664
      3 N          62.8414   89.4276   10.9544 N.am    1  UNL1       -0.2717
      4 C          63.6284   89.2224   12.2147 C.3     1  UNL1        0.1153
      5 C          64.5035   90.3216   12.7399 C.3     1  UNL1        0.1152
      6 N          64.5916   91.6260   12.0047 N.am    1  UNL1       -0.2726
      7 C          65.4667   92.7254   12.5298 C.2     1  UNL1        0.2491
      8 O          65.5549   94.0299   11.7946 O.2     1  UNL1       -0.2699
      9 C          63.8046   91.8313   10.7443 C.3     1  UNL1        0.1135
     10 C          62.9295   90.7321   10.2191 C.3     1  UNL1        0.0956
     11 C          62.1425   90.9373    8.9588 C.3     1  UNL1        0.0233
     12 C          66.2537   92.5201   13.7901 C.ar    1  UNL1        0.0536
     13 C          65.5696   92.5983   15.1227 C.ar    1  UNL1        0.0045
     14 C          66.3566   92.3930   16.3831 C.ar    1  UNL1        0.0001
     15 C          67.8278   92.1096   16.3109 C.ar    1  UNL1        0.0000
     16 C          68.5119   92.0314   14.9783 C.ar    1  UNL1        0.0001
     17 C          67.7249   92.2367   13.7179 C.ar    1  UNL1        0.0045
     18 C          61.8781   87.0238   11.1644 C.2     1  UNL1        0.2494
     19 O          61.1522   86.9491   12.4749 O.2     1  UNL1       -0.2819
     20 C          63.4041   84.5068   12.8395 C.2     1  UNL1        0.1360
     21 C          64.1199   83.2859   13.3364 C.2     1  UNL1        0.0837
     22 C          64.6147   82.2581   12.3623 C.2     1  UNL1        0.2385
     23 N          64.3937   82.4513   10.8913 N.2     1  UNL1       -0.0338
     24 C          63.6779   83.6722   10.3945 C.2     1  UNL1        0.3626
     25 N          63.3163   84.1312    9.0129 N.2     1  UNL1       -0.0341
     26 C          62.5981   85.4425    9.1331 C.2     1  UNL1        0.2356
     27 C          62.5158   85.7941   10.5890 C.2     1  UNL1        0.0868
     28 C          63.1831   84.7000   11.3686 C.3     1  UNL1        0.1975
     29 C          62.9002   85.2323   15.2828 C.3     1  UNL1        0.2520
     30 O          62.9093   85.5346   13.8137 O.2     1  UNL1       -0.4746
@<TRIPOS>BOND
     1    29    30    1
     2    30    20    1
     3    20    21    2
     4    21    22    1
     5    22    23    2
     6    23    24    1
     7    24    25    2
     8    25    26    1
     9    26    27    2
    10    27    18    1
    11    18    19    2
    12    18     1    1
    13     1     2    2
    14     1     3   am
    15     3     4    1
    16     4     5    1
    17     5     6    1
    18     6     7   am
    19     7     8    2
    20     7    12    1
    21    12    13   ar
    22    13    14   ar
    23    14    15   ar
    24    15    16   ar
    25    16    17   ar
    26     6     9    1
    27     9    10    1
    28    10    11    1
    29    27    28    1
    30    28    20    1
    31    28    24    1
    32    10     3    1
    33    17    12   ar
