@<TRIPOS>MOLECULE
*****
 22 25 0 0 0
SMALL
GASTEIGER

@<TRIPOS>ATOM
      1 N          63.9943   89.8552   13.6044 N.3     1  UNL1       -0.2644
      2 C          63.2762   89.3980   12.3694 C.3     1  UNL1        0.0774
      3 C          63.0339   87.9355   12.1410 C.3     1  UNL1        0.0439
      4 C          63.5096   86.9302   13.1475 C.ar    1  UNL1       -0.0169
      5 C          64.2276   87.3874   14.3825 C.ar    1  UNL1        0.0195
      6 S          64.5776   86.1736   15.1913 S.2     1  UNL1       -0.0902
      7 C          64.0758   84.9662   14.4562 C.ar    1  UNL1        0.0290
      8 C          64.1347   83.5015   14.7739 C.ar    1  UNL1        0.0088
      9 C          63.5335   82.5042   13.8283 C.ar    1  UNL1        0.0301
     10 C          62.8734   82.9718   12.5651 C.ar    1  UNL1        0.1402
     11 F          62.2722   81.9745   11.6195 F       1  UNL1       -0.2042
     12 C          62.8146   84.4366   12.2475 C.ar    1  UNL1        0.0298
     13 C          63.4157   85.4337   13.1930 C.ar    1  UNL1        0.0045
     14 C          64.4700   88.8499   14.6110 C.3     1  UNL1        0.1056
     15 C          64.2367   91.3178   13.8330 C.3     1  UNL1        0.1007
     16 C          64.7561   92.1526   16.6673 C.3     1  UNL1        0.0308
     17 C          65.8591   92.2157   15.6528 C.ar    1  UNL1       -0.0215
     18 C          67.2219   92.6961   16.0553 C.ar    1  UNL1        0.0162
     19 C          68.3249   92.7592   15.0408 C.ar    1  UNL1        0.0985
     20 N          68.0652   92.3418   13.6237 N.ar    1  UNL1       -0.2426
     21 C          66.7025   91.8613   13.2210 C.ar    1  UNL1        0.0956
     22 C          65.5994   91.7983   14.2356 C.ar    1  UNL1        0.0091
@<TRIPOS>BOND
     1    16    17    1
     2    17    18   ar
     3    18    19   ar
     4    19    20   ar
     5    20    21   ar
     6    21    22   ar
     7    22    15    1
     8    15     1    1
     9     1     2    1
    10     2     3    1
    11     3     4    1
    12     4     5   ar
    13     5     6   ar
    14     6     7   ar
    15     7     8   ar
    16     8     9   ar
    17     9    10   ar
    18    10    11    1
    19    10    12   ar
    20    12    13   ar
    21     5    14    1
    22    22    17   ar
    23    14     1    1
    24    13     4   ar
    25    13     7   ar
@<TRIPOS>MOLECULE
*****
 22 25 0 0 0
SMALL
GASTEIGER

@<TRIPOS>ATOM
      1 N          62.3795   88.2549   11.3940 N.3     1  UNL1       -0.2644
      2 C          62.4668   89.2498   10.2748 C.3     1  UNL1        0.0774
      3 C          63.2621   90.5093   10.4513 C.3     1  UNL1        0.0439
      4 C          63.9699   90.7739   11.7470 C.ar    1  UNL1       -0.0169
      5 C          63.8826   89.7791   12.8662 C.ar    1  UNL1        0.0195
      6 S          64.6809   90.3086   14.0204 S.2     1  UNL1       -0.0902
      7 C          65.2617   91.6307   13.6146 C.ar    1  UNL1        0.0290
      8 C          66.1339   92.6098   14.3430 C.ar    1  UNL1        0.0088
      9 C          66.5667   93.8766   13.6662 C.ar    1  UNL1        0.0301
     10 C          66.1273   94.1642   12.2612 C.ar    1  UNL1        0.1402
     11 F          66.5601   95.4310   11.5845 F       1  UNL1       -0.2042
     12 C          65.2551   93.1851   11.5329 C.ar    1  UNL1        0.0298
     13 C          64.8223   91.9184   12.2096 C.ar    1  UNL1        0.0045
     14 C          63.0873   88.5196   12.6897 C.3     1  UNL1        0.1056
     15 C          61.5842   86.9954   11.2175 C.3     1  UNL1        0.1007
     16 C          62.5955   85.8685    8.6276 C.3     1  UNL1        0.0308
     17 C          62.7847   85.1027    9.9034 C.ar    1  UNL1       -0.0215
     18 C          63.4795   83.7735    9.8844 C.ar    1  UNL1        0.0162
     19 C          63.6687   83.0077   11.1602 C.ar    1  UNL1        0.0985
     20 N          63.1630   83.5711   12.4551 N.ar    1  UNL1       -0.2426
     21 C          62.4682   84.9003   12.4742 C.ar    1  UNL1        0.0956
     22 C          62.2790   85.6662   11.1984 C.ar    1  UNL1        0.0091
@<TRIPOS>BOND
     1    16    17    1
     2    17    18   ar
     3    18    19   ar
     4    19    20   ar
     5    20    21   ar
     6    21    22   ar
     7    22    15    1
     8    15     1    1
     9     1     2    1
    10     2     3    1
    11     3     4    1
    12     4     5   ar
    13     5     6   ar
    14     6     7   ar
    15     7     8   ar
    16     8     9   ar
    17     9    10   ar
    18    10    11    1
    19    10    12   ar
    20    12    13   ar
    21     5    14    1
    22    22    17   ar
    23    14     1    1
    24    13     4   ar
    25    13     7   ar
@<TRIPOS>MOLECULE
*****
 22 25 0 0 0
SMALL
GASTEIGER

@<TRIPOS>ATOM
      1 N          63.4931   88.4402   12.9337 N.3     1  UNL1       -0.2644
      2 C          63.1288   89.7724   12.3485 C.3     1  UNL1        0.0774
      3 C          62.2478   89.8435   11.1366 C.3     1  UNL1        0.0439
      4 C          61.7310   88.5824   10.5100 C.ar    1  UNL1       -0.0169
      5 C          62.0952   87.2502   11.0953 C.ar    1  UNL1        0.0195
      6 S          61.4402   86.1852   10.2666 S.2     1  UNL1       -0.0902
      7 C          60.6711   86.8592    9.1692 C.ar    1  UNL1        0.0290
      8 C          59.8305   86.3152    8.0524 C.ar    1  UNL1        0.0088
      9 C          59.1694   87.2528    7.0860 C.ar    1  UNL1        0.0301
     10 C          59.3491   88.7344    7.2364 C.ar    1  UNL1        0.1402
     11 F          58.6881   89.6720    6.2700 F       1  UNL1       -0.2042
     12 C          60.1898   89.2783    8.3533 C.ar    1  UNL1        0.0298
     13 C          60.8508   88.3408    9.3196 C.ar    1  UNL1        0.0045
     14 C          62.9763   87.1791   12.3071 C.3     1  UNL1        0.1056
     15 C          64.3742   88.3690   14.1457 C.3     1  UNL1        0.1007
     16 C          63.1928   89.9524   16.4034 C.3     1  UNL1        0.0308
     17 C          63.3031   88.4603   16.5110 C.ar    1  UNL1       -0.0215
     18 C          62.8228   87.7599   17.7473 C.ar    1  UNL1        0.0162
     19 C          62.9331   86.2679   17.8549 C.ar    1  UNL1        0.0985
     20 N          63.5238   85.4762   16.7261 N.ar    1  UNL1       -0.2426
     21 C          64.0042   86.1765   15.4896 C.ar    1  UNL1        0.0956
     22 C          63.8938   87.6686   15.3821 C.ar    1  UNL1        0.0091
@<TRIPOS>BOND
     1    16    17    1
     2    17    18   ar
     3    18    19   ar
     4    19    20   ar
     5    20    21   ar
     6    21    22   ar
     7    22    15    1
     8    15     1    1
     9     1     2    1
    10     2     3    1
    11     3     4    1
    12     4     5   ar
    13     5     6   ar
    14     6     7   ar
    15     7     8   ar
    16     8     9   ar
    17     9    10   ar
    18    10    11    1
    19    10    12   ar
    20    12    13   ar
    21     5    14    1
    22    22    17   ar
    23    14     1    1
    24    13     4   ar
    25    13     7   ar
@<TRIPOS>MOLECULE
*****
 22 25 0 0 0
SMALL
GASTEIGER

@<TRIPOS>ATOM
      1 N          63.5027   88.9535   13.3668 N.3     1  UNL1       -0.2644
      2 C          64.2082   88.2398   14.4816 C.3     1  UNL1        0.0774
      3 C          64.2864   86.7419   14.4823 C.3     1  UNL1        0.0439
      4 C          63.6590   85.9576   13.3681 C.ar    1  UNL1       -0.0169
      5 C          62.9535   86.6713   12.2533 C.ar    1  UNL1        0.0195
      6 S          62.4339   85.6386   11.2974 S.2     1  UNL1       -0.0902
      7 C          62.8183   84.2867   11.8215 C.ar    1  UNL1        0.0290
      8 C          62.5767   82.9018   11.2987 C.ar    1  UNL1        0.0088
      9 C          63.0923   81.7138   12.0557 C.ar    1  UNL1        0.0301
     10 C          63.8495   81.9109   13.3354 C.ar    1  UNL1        0.1402
     11 F          64.3650   80.7230   14.0924 F       1  UNL1       -0.2042
     12 C          64.0910   83.2960   13.8582 C.ar    1  UNL1        0.0298
     13 C          63.5755   84.4838   13.1013 C.ar    1  UNL1        0.0045
     14 C          62.8753   88.1692   12.2526 C.3     1  UNL1        0.1056
     15 C          63.4245   90.4515   13.3661 C.3     1  UNL1        0.1007
     16 C          63.2492   91.3143   10.4982 C.3     1  UNL1        0.0308
     17 C          64.4439   91.6914   11.3231 C.ar    1  UNL1       -0.0215
     18 C          65.5509   92.4999   10.7142 C.ar    1  UNL1        0.0162
     19 C          66.7455   92.8770   11.5392 C.ar    1  UNL1        0.0985
     20 N          66.8332   92.4456   12.9731 N.ar    1  UNL1       -0.2426
     21 C          65.7262   91.6371   13.5821 C.ar    1  UNL1        0.0956
     22 C          64.5315   91.2600   12.7571 C.ar    1  UNL1        0.0091
@<TRIPOS>BOND
     1    16    17    1
     2    17    18   ar
     3    18    19   ar
     4    19    20   ar
     5    20    21   ar
     6    21    22   ar
     7    22    15    1
     8    15     1    1
     9     1     2    1
    10     2     3    1
    11     3     4    1
    12     4     5   ar
    13     5     6   ar
    14     6     7   ar
    15     7     8   ar
    16     8     9   ar
    17     9    10   ar
    18    10    11    1
    19    10    12   ar
    20    12    13   ar
    21     5    14    1
    22    22    17   ar
    23    14     1    1
    24    13     4   ar
    25    13     7   ar
@<TRIPOS>MOLECULE
*****
 22 25 0 0 0
SMALL
GASTEIGER

@<TRIPOS>ATOM
      1 N          61.9429   88.4909   10.8657 N.3     1  UNL1       -0.2644
      2 C          62.1720   89.5890    9.8699 C.3     1  UNL1        0.0774
      3 C          63.0648   90.7429   10.2182 C.3     1  UNL1        0.0439
      4 C          63.7285   90.7987   11.5623 C.ar    1  UNL1       -0.0169
      5 C          63.4994   89.7006   12.5580 C.ar    1  UNL1        0.0195
      6 S          64.2832   90.0255   13.7949 S.2     1  UNL1       -0.0902
      7 C          64.9968   91.3245   13.5636 C.ar    1  UNL1        0.0290
      8 C          65.9144   92.1339   14.4312 C.ar    1  UNL1        0.0088
      9 C          66.4892   93.4212   13.9190 C.ar    1  UNL1        0.0301
     10 C          66.1464   93.8991   12.5391 C.ar    1  UNL1        0.1402
     11 F          66.7212   95.1864   12.0268 F       1  UNL1       -0.2042
     12 C          65.2287   93.0897   11.6715 C.ar    1  UNL1        0.0298
     13 C          64.6539   91.8024   12.1838 C.ar    1  UNL1        0.0045
     14 C          62.6066   88.5467   12.2097 C.3     1  UNL1        0.1056
     15 C          61.0501   87.3369   10.5174 C.3     1  UNL1        0.1007
     16 C          59.0496   87.0994    8.2944 C.3     1  UNL1        0.0308
     17 C          60.3561   86.3675    8.2090 C.ar    1  UNL1       -0.0215
     18 C          60.6624   85.5168    7.0122 C.ar    1  UNL1        0.0162
     19 C          61.9689   84.7849    6.9267 C.ar    1  UNL1        0.0985
     20 N          62.9691   84.9036    8.0382 N.ar    1  UNL1       -0.2426
     21 C          62.6629   85.7543    9.2352 C.ar    1  UNL1        0.0956
     22 C          61.3564   86.4862    9.3206 C.ar    1  UNL1        0.0091
@<TRIPOS>BOND
     1    16    17    1
     2    17    18   ar
     3    18    19   ar
     4    19    20   ar
     5    20    21   ar
     6    21    22   ar
     7    22    15    1
     8    15     1    1
     9     1     2    1
    10     2     3    1
    11     3     4    1
    12     4     5   ar
    13     5     6   ar
    14     6     7   ar
    15     7     8   ar
    16     8     9   ar
    17     9    10   ar
    18    10    11    1
    19    10    12   ar
    20    12    13   ar
    21     5    14    1
    22    22    17   ar
    23    14     1    1
    24    13     4   ar
    25    13     7   ar
@<TRIPOS>MOLECULE
*****
 22 25 0 0 0
SMALL
GASTEIGER

@<TRIPOS>ATOM
      1 N          63.5861   88.9948   13.5235 N.3     1  UNL1       -0.2644
      2 C          64.2644   88.2326   14.6230 C.3     1  UNL1        0.0774
      3 C          64.3127   86.7341   14.5776 C.3     1  UNL1        0.0439
      4 C          63.6827   85.9978   13.4327 C.ar    1  UNL1       -0.0169
      5 C          63.0043   86.7599   12.3332 C.ar    1  UNL1        0.0195
      6 S          62.4752   85.7683   11.3399 S.2     1  UNL1       -0.0902
      7 C          62.8266   84.3932   11.8254 C.ar    1  UNL1        0.0290
      8 C          62.5635   83.0304   11.2568 C.ar    1  UNL1        0.0088
      9 C          63.0466   81.8093   11.9818 C.ar    1  UNL1        0.0301
     10 C          63.7928   81.9510   13.2752 C.ar    1  UNL1        0.1402
     11 F          64.2759   80.7299   14.0001 F       1  UNL1       -0.2042
     12 C          64.0559   83.3140   13.8437 C.ar    1  UNL1        0.0298
     13 C          63.5728   84.5350   13.1188 C.ar    1  UNL1        0.0045
     14 C          62.9560   88.2584   12.3786 C.3     1  UNL1        0.1056
     15 C          63.5378   90.4933   13.5689 C.3     1  UNL1        0.1007
     16 C          66.0882   91.4297   14.8412 C.3     1  UNL1        0.0308
     17 C          65.7961   91.7681   13.4094 C.ar    1  UNL1       -0.0215
     18 C          66.7791   92.5746   12.6137 C.ar    1  UNL1        0.0162
     19 C          66.4869   92.9130   11.1819 C.ar    1  UNL1        0.0985
     20 N          65.2117   92.4448   10.5457 N.ar    1  UNL1       -0.2426
     21 C          64.2286   91.6382   11.3414 C.ar    1  UNL1        0.0956
     22 C          64.5208   91.2999   12.7733 C.ar    1  UNL1        0.0091
@<TRIPOS>BOND
     1    16    17    1
     2    17    18   ar
     3    18    19   ar
     4    19    20   ar
     5    20    21   ar
     6    21    22   ar
     7    22    15    1
     8    15     1    1
     9     1     2    1
    10     2     3    1
    11     3     4    1
    12     4     5   ar
    13     5     6   ar
    14     6     7   ar
    15     7     8   ar
    16     8     9   ar
    17     9    10   ar
    18    10    11    1
    19    10    12   ar
    20    12    13   ar
    21     5    14    1
    22    22    17   ar
    23    14     1    1
    24    13     4   ar
    25    13     7   ar
@<TRIPOS>MOLECULE
*****
 22 25 0 0 0
SMALL
GASTEIGER

@<TRIPOS>ATOM
      1 N          63.3982   89.3120   12.9893 N.3     1  UNL1       -0.2644
      2 C          62.7169   88.7010   11.8009 C.3     1  UNL1        0.0774
      3 C          62.6341   87.2092   11.6688 C.3     1  UNL1        0.0439
      4 C          63.2325   86.3283   12.7252 C.ar    1  UNL1       -0.0169
      5 C          63.9138   86.9393   13.9136 C.ar    1  UNL1        0.0195
      6 S          64.4075   85.8253   14.7884 S.2     1  UNL1       -0.0902
      7 C          64.0313   84.5257   14.1405 C.ar    1  UNL1        0.0290
      8 C          64.2561   83.0995   14.5470 C.ar    1  UNL1        0.0088
      9 C          63.7548   81.9841   13.6783 C.ar    1  UNL1        0.0301
     10 C          63.0286   82.2950   12.4032 C.ar    1  UNL1        0.1402
     11 F          62.5273   81.1796   11.5345 F       1  UNL1       -0.2042
     12 C          62.8038   83.7213   11.9968 C.ar    1  UNL1        0.0298
     13 C          63.3051   84.8366   12.8654 C.ar    1  UNL1        0.0045
     14 C          63.9967   88.4311   14.0457 C.3     1  UNL1        0.1056
     15 C          63.4811   90.8039   13.1215 C.3     1  UNL1        0.1007
     16 C          63.4058   91.5923   10.2279 C.3     1  UNL1        0.0308
     17 C          64.5971   91.9417   11.0697 C.ar    1  UNL1       -0.0215
     18 C          65.7508   92.6853   10.4647 C.ar    1  UNL1        0.0162
     19 C          66.9422   93.0347   11.3065 C.ar    1  UNL1        0.0985
     20 N          66.9798   92.6405   12.7532 N.ar    1  UNL1       -0.2426
     21 C          65.8261   91.8969   13.3583 C.ar    1  UNL1        0.0956
     22 C          64.6347   91.5475   12.5165 C.ar    1  UNL1        0.0091
@<TRIPOS>BOND
     1    16    17    1
     2    17    18   ar
     3    18    19   ar
     4    19    20   ar
     5    20    21   ar
     6    21    22   ar
     7    22    15    1
     8    15     1    1
     9     1     2    1
    10     2     3    1
    11     3     4    1
    12     4     5   ar
    13     5     6   ar
    14     6     7   ar
    15     7     8   ar
    16     8     9   ar
    17     9    10   ar
    18    10    11    1
    19    10    12   ar
    20    12    13   ar
    21     5    14    1
    22    22    17   ar
    23    14     1    1
    24    13     4   ar
    25    13     7   ar
@<TRIPOS>MOLECULE
*****
 22 25 0 0 0
SMALL
GASTEIGER

@<TRIPOS>ATOM
      1 N          61.8916   89.4814   10.6553 N.3     1  UNL1       -0.2644
      2 C          61.9706   89.0003   12.0738 C.3     1  UNL1        0.0774
      3 C          62.9311   89.6417   13.0309 C.3     1  UNL1        0.0439
      4 C          63.8125   90.7643   12.5694 C.ar    1  UNL1       -0.0169
      5 C          63.7335   91.2453   11.1509 C.ar    1  UNL1        0.0195
      6 S          64.7205   92.3626   10.9847 S.2     1  UNL1       -0.0902
      7 C          65.4095   92.5720   12.3005 C.ar    1  UNL1        0.0290
      8 C          66.4754   93.5345   12.7333 C.ar    1  UNL1        0.0088
      9 C          66.9801   93.5093   14.1456 C.ar    1  UNL1        0.0301
     10 C          66.4190   92.5215   15.1251 C.ar    1  UNL1        0.1402
     11 F          66.9237   92.4962   16.5374 F       1  UNL1       -0.2042
     12 C          65.3531   91.5589   14.6922 C.ar    1  UNL1        0.0298
     13 C          64.8484   91.5842   13.2799 C.ar    1  UNL1        0.0045
     14 C          62.7731   90.6039   10.1938 C.3     1  UNL1        0.1056
     15 C          60.9311   88.8399    9.6981 C.3     1  UNL1        0.1007
     16 C          59.0203   87.5701    7.7651 C.3     1  UNL1        0.0308
     17 C          60.3456   86.9248    8.0430 C.ar    1  UNL1       -0.0215
     18 C          60.7154   85.6446    7.3543 C.ar    1  UNL1        0.0162
     19 C          62.0407   84.9993    7.6322 C.ar    1  UNL1        0.0985
     20 N          62.9961   85.6342    8.5986 N.ar    1  UNL1       -0.2426
     21 C          62.6263   86.9144    9.2873 C.ar    1  UNL1        0.0956
     22 C          61.3010   87.5597    9.0095 C.ar    1  UNL1        0.0091
@<TRIPOS>BOND
     1    16    17    1
     2    17    18   ar
     3    18    19   ar
     4    19    20   ar
     5    20    21   ar
     6    21    22   ar
     7    22    15    1
     8    15     1    1
     9     1     2    1
    10     2     3    1
    11     3     4    1
    12     4     5   ar
    13     5     6   ar
    14     6     7   ar
    15     7     8   ar
    16     8     9   ar
    17     9    10   ar
    18    10    11    1
    19    10    12   ar
    20    12    13   ar
    21     5    14    1
    22    22    17   ar
    23    14     1    1
    24    13     4   ar
    25    13     7   ar
@<TRIPOS>MOLECULE
*****
 22 25 0 0 0
SMALL
GASTEIGER

@<TRIPOS>ATOM
      1 N          63.7147   88.4477   13.2678 N.3     1  UNL1       -0.2644
      2 C          64.3543   87.7519   14.4325 C.3     1  UNL1        0.0774
      3 C          64.3369   86.2542   14.5130 C.3     1  UNL1        0.0439
      4 C          63.6799   85.4523   13.4289 C.ar    1  UNL1       -0.0169
      5 C          63.0403   86.1482   12.2642 C.ar    1  UNL1        0.0195
      6 S          62.4724   85.1005   11.3532 S.2     1  UNL1       -0.0902
      7 C          62.7610   83.7571   11.9549 C.ar    1  UNL1        0.0290
      8 C          62.4406   82.3641   11.5004 C.ar    1  UNL1        0.0088
      9 C          62.8666   81.1884   12.3288 C.ar    1  UNL1        0.0301
     10 C          63.6129   81.4057   13.6117 C.ar    1  UNL1        0.1402
     11 F          64.0389   80.2300   14.4401 F       1  UNL1       -0.2042
     12 C          63.9332   82.7989   14.0661 C.ar    1  UNL1        0.0298
     13 C          63.5073   83.9745   13.2378 C.ar    1  UNL1        0.0045
     14 C          63.0577   87.6459   12.1836 C.3     1  UNL1        0.1056
     15 C          63.7321   89.9455   13.1871 C.3     1  UNL1        0.1007
     16 C          66.2364   91.5937   13.0776 C.3     1  UNL1        0.0308
     17 C          65.4014   91.5801   14.3237 C.ar    1  UNL1       -0.0215
     18 C          65.8185   92.3905   15.5150 C.ar    1  UNL1        0.0162
     19 C          64.9836   92.3768   16.7610 C.ar    1  UNL1        0.0985
     20 N          63.7314   91.5527   16.8158 N.ar    1  UNL1       -0.2426
     21 C          63.3142   90.7423   15.6245 C.ar    1  UNL1        0.0956
     22 C          64.1492   90.7559   14.3784 C.ar    1  UNL1        0.0091
@<TRIPOS>BOND
     1    16    17    1
     2    17    18   ar
     3    18    19   ar
     4    19    20   ar
     5    20    21   ar
     6    21    22   ar
     7    22    15    1
     8    15     1    1
     9     1     2    1
    10     2     3    1
    11     3     4    1
    12     4     5   ar
    13     5     6   ar
    14     6     7   ar
    15     7     8   ar
    16     8     9   ar
    17     9    10   ar
    18    10    11    1
    19    10    12   ar
    20    12    13   ar
    21     5    14    1
    22    22    17   ar
    23    14     1    1
    24    13     4   ar
    25    13     7   ar
