@<TRIPOS>MOLECULE
*****
 28 31 0 0 0
SMALL
GASTEIGER

@<TRIPOS>ATOM
      1 C          64.5799   90.3591   14.0164 C.ar    1  UNL1        0.2261
      2 N          63.9996   90.3040   15.3985 N.ar    1  UNL1       -0.1114
      3 N          63.6419   88.8777   15.6946 N.ar    1  UNL1       -0.1056
      4 C          64.0011   88.0512   14.4955 C.ar    1  UNL1        0.2673
      5 O          64.5808   88.9667   13.4583 O.2     1  UNL1       -0.4182
      6 C          63.8135   86.5693   14.3577 C.ar    1  UNL1        0.1376
      7 C          64.1382   85.6622   15.5073 C.ar    1  UNL1        0.0240
      8 C          63.9506   84.1804   15.3695 C.ar    1  UNL1        0.0032
      9 C          63.4383   83.6057   14.0821 C.ar    1  UNL1        0.0192
     10 C          63.1137   84.5129   12.9325 C.ar    1  UNL1        0.0842
     11 C          62.5962   84.2376   11.5518 C.ar    1  UNL1        0.0356
     12 C          62.4640   85.5493   10.8362 C.ar    1  UNL1        0.0801
     13 N          62.8997   86.6353   11.7747 N.ar    1  UNL1       -0.1694
     14 N          63.3013   85.9947   13.0703 N.ar    1  UNL1       -0.2253
     15 C          61.9808   85.7413    9.4291 C.3     1  UNL1        0.0421
     16 C          60.6245   86.3296    9.1756 C.3     1  UNL1        0.0064
     17 C          62.8540   85.3450    8.2757 C.3     1  UNL1        0.0064
     18 N          66.0584   94.0525   11.9136 N.3     1  UNL1       -0.2726
     19 C          65.1919   93.0699   11.1832 C.3     1  UNL1        0.0726
     20 C          64.6990   91.8387   11.8841 C.3     1  UNL1        0.0266
     21 C          65.0728   91.5902   13.3154 C.3     1  UNL1        0.0810
     22 C          65.9393   92.5729   14.0458 C.3     1  UNL1        0.0266
     23 C          66.4322   93.8040   13.3449 C.3     1  UNL1        0.0726
     24 C          66.5513   95.2837   11.2126 C.3     1  UNL1        0.0747
     25 C          66.5518   95.3439    9.7138 C.3     1  UNL1        0.0494
     26 C          67.7125   94.7907    8.9414 C.3     1  UNL1        0.1437
     27 C          68.5966   92.4098    9.4889 C.3     1  UNL1        0.1741
     28 O          68.7095   93.8997    9.6212 O.3     1  UNL1       -0.3511
@<TRIPOS>BOND
     1    27    28    1
     2    28    26    1
     3    26    25    1
     4    25    24    1
     5    24    18    1
     6    18    19    1
     7    19    20    1
     8    20    21    1
     9    21     1    1
    10     1     2   ar
    11     2     3   ar
    12     3     4   ar
    13     4     6    1
    14     6     7   ar
    15     7     8   ar
    16     8     9   ar
    17     9    10   ar
    18    10    11   ar
    19    11    12   ar
    20    12    15    1
    21    15    16    1
    22    15    17    1
    23    12    13   ar
    24    13    14   ar
    25     4     5   ar
    26    21    22    1
    27    22    23    1
    28    23    18    1
    29     5     1   ar
    30    14     6   ar
    31    14    10   ar
@<TRIPOS>MOLECULE
*****
 28 31 0 0 0
SMALL
GASTEIGER

@<TRIPOS>ATOM
      1 C          64.5800   90.3942   14.0167 C.ar    1  UNL1        0.2261
      2 N          63.9910   90.3364   15.3951 N.ar    1  UNL1       -0.1114
      3 N          63.6350   88.9089   15.6876 N.ar    1  UNL1       -0.1056
      4 C          64.0039   88.0845   14.4900 C.ar    1  UNL1        0.2673
      5 O          64.5879   89.0024   13.4574 O.2     1  UNL1       -0.4182
      6 C          63.8209   86.6023   14.3496 C.ar    1  UNL1        0.1376
      7 C          64.1599   85.6931   15.4935 C.ar    1  UNL1        0.0240
      8 C          63.9769   84.2110   15.3531 C.ar    1  UNL1        0.0032
      9 C          63.4550   83.6380   14.0689 C.ar    1  UNL1        0.0192
     10 C          63.1160   84.5472   12.9250 C.ar    1  UNL1        0.0842
     11 C          62.5867   84.2738   11.5484 C.ar    1  UNL1        0.0356
     12 C          62.4426   85.5871   10.8379 C.ar    1  UNL1        0.0801
     13 N          62.8828   86.6720   11.7755 N.ar    1  UNL1       -0.1694
     14 N          63.2990   86.0293   13.0654 N.ar    1  UNL1       -0.2253
     15 C          61.9455   85.7812    9.4360 C.3     1  UNL1        0.0421
     16 C          62.8054   85.3826    8.2734 C.3     1  UNL1        0.0064
     17 C          60.5885   86.3739    9.1968 C.3     1  UNL1        0.0064
     18 N          66.0626   94.0934   11.9268 N.3     1  UNL1       -0.2726
     19 C          66.4265   93.8453   13.3607 C.3     1  UNL1        0.0726
     20 C          65.9323   92.6123   14.0574 C.3     1  UNL1        0.0266
     21 C          65.0742   91.6273   13.3201 C.3     1  UNL1        0.0810
     22 C          64.7104   91.8753   11.8862 C.3     1  UNL1        0.0266
     23 C          65.2046   93.1084   11.1896 C.3     1  UNL1        0.0726
     24 C          66.5568   95.3264   11.2302 C.3     1  UNL1        0.0747
     25 C          66.5444   95.3973    9.7319 C.3     1  UNL1        0.0494
     26 C          67.6742   94.8038    8.9436 C.3     1  UNL1        0.1437
     27 C          68.8069   92.4871    9.2596 C.3     1  UNL1        0.1741
     28 O          68.6907   93.9370    9.6259 O.3     1  UNL1       -0.3511
@<TRIPOS>BOND
     1    27    28    1
     2    28    26    1
     3    26    25    1
     4    25    24    1
     5    24    18    1
     6    18    19    1
     7    19    20    1
     8    20    21    1
     9    21     1    1
    10     1     2   ar
    11     2     3   ar
    12     3     4   ar
    13     4     6    1
    14     6     7   ar
    15     7     8   ar
    16     8     9   ar
    17     9    10   ar
    18    10    11   ar
    19    11    12   ar
    20    12    15    1
    21    15    16    1
    22    15    17    1
    23    12    13   ar
    24    13    14   ar
    25     4     5   ar
    26    21    22    1
    27    22    23    1
    28    23    18    1
    29     5     1   ar
    30    14     6   ar
    31    14    10   ar
@<TRIPOS>MOLECULE
*****
 28 31 0 0 0
SMALL
GASTEIGER

@<TRIPOS>ATOM
      1 C          64.2121   90.7500   12.6350 C.ar    1  UNL1        0.2261
      2 N          63.2948   89.8845   11.8228 N.ar    1  UNL1       -0.1114
      3 N          62.8831   88.7194   12.6732 N.ar    1  UNL1       -0.1056
      4 C          63.5460   88.8648   14.0109 C.ar    1  UNL1        0.2673
      5 O          64.3674   90.1197   13.9872 O.2     1  UNL1       -0.4182
      6 C          63.4112   87.9209   15.1689 C.ar    1  UNL1        0.1376
      7 C          63.1724   88.4568   16.5494 C.ar    1  UNL1        0.0240
      8 C          63.0377   87.5130   17.7074 C.ar    1  UNL1        0.0032
      9 C          63.1417   86.0332   17.4849 C.ar    1  UNL1        0.0192
     10 C          63.3805   85.4973   16.1044 C.ar    1  UNL1        0.0842
     11 C          63.5271   84.0989   15.5820 C.ar    1  UNL1        0.0356
     12 C          63.7525   84.1785   14.1012 C.ar    1  UNL1        0.0801
     13 N          63.7452   85.6261   13.7083 N.ar    1  UNL1       -0.1694
     14 N          63.5153   86.4412   14.9464 N.ar    1  UNL1       -0.2253
     15 C          63.9505   83.0147   13.1757 C.3     1  UNL1        0.0421
     16 C          63.7863   81.6139   13.6864 C.3     1  UNL1        0.0064
     17 C          64.3126   83.2517   11.7395 C.3     1  UNL1        0.0064
     18 N          66.1568   94.5668   11.2566 N.3     1  UNL1       -0.2726
     19 C          66.3685   94.0815   12.6600 C.3     1  UNL1        0.0726
     20 C          65.7203   92.8093   13.1195 C.3     1  UNL1        0.0266
     21 C          64.8603   92.0222   12.1755 C.3     1  UNL1        0.0810
     22 C          64.6486   92.5075   10.7720 C.3     1  UNL1        0.0266
     23 C          65.2968   93.7797   10.3126 C.3     1  UNL1        0.0726
     24 C          66.8050   95.8390   10.7971 C.3     1  UNL1        0.0747
     25 C          67.2389   95.9864    9.3688 C.3     1  UNL1        0.0494
     26 C          68.0025   94.8825    8.6992 C.3     1  UNL1        0.1437
     27 C          68.5915   92.4344    9.3398 C.3     1  UNL1        0.1741
     28 O          68.7922   93.9095    9.5237 O.3     1  UNL1       -0.3511
@<TRIPOS>BOND
     1    27    28    1
     2    28    26    1
     3    26    25    1
     4    25    24    1
     5    24    18    1
     6    18    19    1
     7    19    20    1
     8    20    21    1
     9    21     1    1
    10     1     2   ar
    11     2     3   ar
    12     3     4   ar
    13     4     6    1
    14     6     7   ar
    15     7     8   ar
    16     8     9   ar
    17     9    10   ar
    18    10    11   ar
    19    11    12   ar
    20    12    15    1
    21    15    16    1
    22    15    17    1
    23    12    13   ar
    24    13    14   ar
    25     4     5   ar
    26    21    22    1
    27    22    23    1
    28    23    18    1
    29     5     1   ar
    30    14     6   ar
    31    14    10   ar
@<TRIPOS>MOLECULE
*****
 28 31 0 0 0
SMALL
GASTEIGER

@<TRIPOS>ATOM
      1 C          63.7095   86.7151   14.5978 C.ar    1  UNL1        0.2261
      2 N          63.5280   87.5613   15.8230 N.ar    1  UNL1       -0.1114
      3 N          63.7380   88.9941   15.4321 N.ar    1  UNL1       -0.1056
      4 C          64.0492   89.0335   13.9652 C.ar    1  UNL1        0.2673
      5 O          64.0316   87.6250   13.4496 O.2     1  UNL1       -0.4182
      6 C          64.3290   90.2652   13.1560 C.ar    1  UNL1        0.1376
      7 C          63.5543   90.5287   11.8989 C.ar    1  UNL1        0.0240
      8 C          63.8340   91.7603   11.0898 C.ar    1  UNL1        0.0032
      9 C          64.8885   92.7285   11.5378 C.ar    1  UNL1        0.0192
     10 C          65.6632   92.4651   12.7949 C.ar    1  UNL1        0.0842
     11 C          66.7540   93.2326   13.4811 C.ar    1  UNL1        0.0356
     12 C          67.1484   92.4754   14.7144 C.ar    1  UNL1        0.0801
     13 N          66.3014   91.2398   14.7904 N.ar    1  UNL1       -0.1694
     14 N          65.3834   91.2334   13.6040 N.ar    1  UNL1       -0.2253
     15 C          68.2045   92.8823   15.6989 C.3     1  UNL1        0.0421
     16 C          68.8010   91.8626   16.6233 C.3     1  UNL1        0.0064
     17 C          68.6641   94.3089   15.7589 C.3     1  UNL1        0.0064
     18 N          63.3505   82.2338   14.4012 N.3     1  UNL1       -0.2726
     19 C          64.6221   82.9039   13.9721 C.3     1  UNL1        0.0726
     20 C          64.7417   84.3976   14.0376 C.3     1  UNL1        0.0266
     21 C          63.5898   85.2213   14.5322 C.3     1  UNL1        0.0810
     22 C          62.3182   84.5513   14.9613 C.3     1  UNL1        0.0266
     23 C          62.1986   83.0575   14.8958 C.3     1  UNL1        0.0726
     24 C          63.2308   80.7400   14.3356 C.3     1  UNL1        0.0747
     25 C          62.4622   80.0975   13.2192 C.3     1  UNL1        0.0494
     26 C          62.8333   80.3798   11.7935 C.3     1  UNL1        0.1437
     27 C          63.9385   82.2951   10.4297 C.3     1  UNL1        0.1741
     28 O          62.8095   81.7879   11.2771 O.3     1  UNL1       -0.3511
@<TRIPOS>BOND
     1    27    28    1
     2    28    26    1
     3    26    25    1
     4    25    24    1
     5    24    18    1
     6    18    19    1
     7    19    20    1
     8    20    21    1
     9    21     1    1
    10     1     2   ar
    11     2     3   ar
    12     3     4   ar
    13     4     6    1
    14     6     7   ar
    15     7     8   ar
    16     8     9   ar
    17     9    10   ar
    18    10    11   ar
    19    11    12   ar
    20    12    15    1
    21    15    16    1
    22    15    17    1
    23    12    13   ar
    24    13    14   ar
    25     4     5   ar
    26    21    22    1
    27    22    23    1
    28    23    18    1
    29     5     1   ar
    30    14     6   ar
    31    14    10   ar
@<TRIPOS>MOLECULE
*****
 28 31 0 0 0
SMALL
GASTEIGER

@<TRIPOS>ATOM
      1 C          63.0414   87.6064   12.5062 C.ar    1  UNL1        0.2261
      2 N          62.1480   88.6288   11.8685 N.ar    1  UNL1       -0.1114
      3 N          62.5847   89.9843   12.3395 N.ar    1  UNL1       -0.1056
      4 C          63.7480   89.7998   13.2682 C.ar    1  UNL1        0.2673
      5 O          64.0303   88.3302   13.3713 O.2     1  UNL1       -0.4182
      6 C          64.4976   90.8929   13.9706 C.ar    1  UNL1        0.1376
      7 C          64.4343   91.0052   15.4650 C.ar    1  UNL1        0.0240
      8 C          65.1839   92.0983   16.1674 C.ar    1  UNL1        0.0032
      9 C          65.9966   93.0791   15.3752 C.ar    1  UNL1        0.0192
     10 C          66.0598   92.9669   13.8808 C.ar    1  UNL1        0.0842
     11 C          66.7724   93.7815   12.8423 C.ar    1  UNL1        0.0356
     12 C          66.4633   93.1919   11.4981 C.ar    1  UNL1        0.0801
     13 N          65.5596   92.0128   11.7059 N.ar    1  UNL1       -0.1694
     14 N          65.3103   91.8738   13.1785 N.ar    1  UNL1       -0.2253
     15 C          66.9690   93.6934   10.1779 C.3     1  UNL1        0.0421
     16 C          66.5078   95.0208    9.6533 C.3     1  UNL1        0.0064
     17 C          67.9360   92.8674    9.3825 C.3     1  UNL1        0.0064
     18 N          62.7978   83.1507   11.9261 N.3     1  UNL1       -0.2726
     19 C          62.3236   84.0749   10.8439 C.3     1  UNL1        0.0726
     20 C          62.4049   85.5602   11.0373 C.3     1  UNL1        0.0266
     21 C          62.9602   86.1212   12.3129 C.3     1  UNL1        0.0810
     22 C          63.4343   85.1969   13.3950 C.3     1  UNL1        0.0266
     23 C          63.3531   83.7117   13.2016 C.3     1  UNL1        0.0726
     24 C          62.7166   81.6654   11.7327 C.3     1  UNL1        0.0747
     25 C          63.0533   80.7420   12.8658 C.3     1  UNL1        0.0494
     26 C          61.9570   80.0532   13.6231 C.3     1  UNL1        0.1437
     27 C          59.4388   80.3169   14.2056 C.3     1  UNL1        0.1741
     28 O          60.8387   80.8556   14.2195 O.3     1  UNL1       -0.3511
@<TRIPOS>BOND
     1    27    28    1
     2    28    26    1
     3    26    25    1
     4    25    24    1
     5    24    18    1
     6    18    19    1
     7    19    20    1
     8    20    21    1
     9    21     1    1
    10     1     2   ar
    11     2     3   ar
    12     3     4   ar
    13     4     6    1
    14     6     7   ar
    15     7     8   ar
    16     8     9   ar
    17     9    10   ar
    18    10    11   ar
    19    11    12   ar
    20    12    15    1
    21    15    16    1
    22    15    17    1
    23    12    13   ar
    24    13    14   ar
    25     4     5   ar
    26    21    22    1
    27    22    23    1
    28    23    18    1
    29     5     1   ar
    30    14     6   ar
    31    14    10   ar
@<TRIPOS>MOLECULE
*****
 28 31 0 0 0
SMALL
GASTEIGER

@<TRIPOS>ATOM
      1 C          62.9656   89.2934   11.9519 C.ar    1  UNL1        0.2261
      2 N          63.3831   88.3561   13.0462 N.ar    1  UNL1       -0.1114
      3 N          64.3270   89.0911   13.9511 N.ar    1  UNL1       -0.1056
      4 C          64.4929   90.4826   13.4162 C.ar    1  UNL1        0.2673
      5 O          63.6516   90.6076   12.1806 O.2     1  UNL1       -0.4182
      6 C          65.3498   91.5600   14.0121 C.ar    1  UNL1        0.1376
      7 C          65.8319   91.4380   15.4273 C.ar    1  UNL1        0.0240
      8 C          66.6887   92.5153   16.0232 C.ar    1  UNL1        0.0032
      9 C          67.0635   93.7146   15.2039 C.ar    1  UNL1        0.0192
     10 C          66.5814   93.8366   13.7888 C.ar    1  UNL1        0.0842
     11 C          66.7872   94.8950   12.7460 C.ar    1  UNL1        0.0356
     12 C          66.0576   94.4718   11.5056 C.ar    1  UNL1        0.0801
     13 N          65.4008   93.1519   11.7818 N.ar    1  UNL1       -0.1694
     14 N          65.7246   92.7593   13.1929 N.ar    1  UNL1       -0.2253
     15 C          65.9956   95.2347   10.2155 C.3     1  UNL1        0.0421
     16 C          65.0658   96.4038   10.0795 C.3     1  UNL1        0.0064
     17 C          66.8635   94.8285    9.0616 C.3     1  UNL1        0.0064
     18 N          60.1499   88.3316    8.5761 N.3     1  UNL1       -0.2726
     19 C          60.0816   89.6690    9.2517 C.3     1  UNL1        0.0726
     20 C          61.0202   89.9897   10.3770 C.3     1  UNL1        0.0266
     21 C          62.0271   88.9728   10.8267 C.3     1  UNL1        0.0810
     22 C          62.0954   87.6353   10.1511 C.3     1  UNL1        0.0266
     23 C          61.1568   87.3147    9.0258 C.3     1  UNL1        0.0726
     24 C          59.2114   88.0109    7.4508 C.3     1  UNL1        0.0747
     25 C          58.6173   89.1179    6.6312 C.3     1  UNL1        0.0494
     26 C          59.5080   90.0119    5.8205 C.3     1  UNL1        0.1437
     27 C          57.4985   91.4335    4.9891 C.3     1  UNL1        0.1741
     28 O          58.9687   91.2900    5.2497 O.3     1  UNL1       -0.3511
@<TRIPOS>BOND
     1    27    28    1
     2    28    26    1
     3    26    25    1
     4    25    24    1
     5    24    18    1
     6    18    19    1
     7    19    20    1
     8    20    21    1
     9    21     1    1
    10     1     2   ar
    11     2     3   ar
    12     3     4   ar
    13     4     6    1
    14     6     7   ar
    15     7     8   ar
    16     8     9   ar
    17     9    10   ar
    18    10    11   ar
    19    11    12   ar
    20    12    15    1
    21    15    16    1
    22    15    17    1
    23    12    13   ar
    24    13    14   ar
    25     4     5   ar
    26    21    22    1
    27    22    23    1
    28    23    18    1
    29     5     1   ar
    30    14     6   ar
    31    14    10   ar
@<TRIPOS>MOLECULE
*****
 28 31 0 0 0
SMALL
GASTEIGER

@<TRIPOS>ATOM
      1 C          63.0582   89.6493   12.7672 C.ar    1  UNL1        0.2261
      2 N          61.5852   89.7903   12.5214 N.ar    1  UNL1       -0.1114
      3 N          61.1557   88.6686   11.6230 N.ar    1  UNL1       -0.1056
      4 C          62.3632   87.8342   11.3135 C.ar    1  UNL1        0.2673
      5 O          63.5390   88.4403   12.0206 O.2     1  UNL1       -0.4182
      6 C          62.3902   86.6089   10.4486 C.ar    1  UNL1        0.1376
      7 C          62.1151   86.7224    8.9785 C.ar    1  UNL1        0.0240
      8 C          62.1421   85.4970    8.1137 C.ar    1  UNL1        0.0032
      9 C          62.4442   84.1583    8.7191 C.ar    1  UNL1        0.0192
     10 C          62.7192   84.0449   10.1893 C.ar    1  UNL1        0.0842
     11 C          63.0445   82.8689   11.0617 C.ar    1  UNL1        0.0356
     12 C          63.2185   83.3674   12.4658 C.ar    1  UNL1        0.0801
     13 N          63.0008   84.8514   12.4610 N.ar    1  UNL1       -0.1694
     14 N          62.6922   85.2702   11.0540 N.ar    1  UNL1       -0.2253
     15 C          63.5517   82.5289   13.6641 C.3     1  UNL1        0.0421
     16 C          63.4324   81.0354   13.5912 C.3     1  UNL1        0.0064
     17 C          64.0042   83.1839   14.9354 C.3     1  UNL1        0.0064
     18 N          65.5902   92.3743   15.2995 N.3     1  UNL1       -0.2726
     19 C          65.6877   92.4351   13.8039 C.3     1  UNL1        0.0726
     20 C          64.8437   91.5267   12.9598 C.3     1  UNL1        0.0266
     21 C          63.9022   90.5576   13.6113 C.3     1  UNL1        0.0810
     22 C          63.8047   90.4969   15.1069 C.3     1  UNL1        0.0266
     23 C          64.6486   91.4052   15.9510 C.3     1  UNL1        0.0726
     24 C          66.4341   93.2827   16.1436 C.3     1  UNL1        0.0747
     25 C          67.8259   93.6333   15.7076 C.3     1  UNL1        0.0494
     26 C          68.8232   92.5462   15.4365 C.3     1  UNL1        0.1437
     27 C          68.8257   91.7194   12.9735 C.3     1  UNL1        0.1741
     28 O          69.4913   92.4584   14.0964 O.3     1  UNL1       -0.3511
@<TRIPOS>BOND
     1    27    28    1
     2    28    26    1
     3    26    25    1
     4    25    24    1
     5    24    18    1
     6    18    19    1
     7    19    20    1
     8    20    21    1
     9    21     1    1
    10     1     2   ar
    11     2     3   ar
    12     3     4   ar
    13     4     6    1
    14     6     7   ar
    15     7     8   ar
    16     8     9   ar
    17     9    10   ar
    18    10    11   ar
    19    11    12   ar
    20    12    15    1
    21    15    16    1
    22    15    17    1
    23    12    13   ar
    24    13    14   ar
    25     4     5   ar
    26    21    22    1
    27    22    23    1
    28    23    18    1
    29     5     1   ar
    30    14     6   ar
    31    14    10   ar
@<TRIPOS>MOLECULE
*****
 28 31 0 0 0
SMALL
GASTEIGER

@<TRIPOS>ATOM
      1 C          63.7411   88.2085   13.3074 C.ar    1  UNL1        0.2261
      2 N          62.9463   89.1579   12.4605 N.ar    1  UNL1       -0.1114
      3 N          63.4803   90.5409   12.6887 N.ar    1  UNL1       -0.1056
      4 C          64.6051   90.4464   13.6766 C.ar    1  UNL1        0.2673
      5 O          64.7663   89.0049   14.0589 O.2     1  UNL1       -0.4182
      6 C          65.4248   91.5922   14.1917 C.ar    1  UNL1        0.1376
      7 C          65.9007   91.5941   15.6142 C.ar    1  UNL1        0.0240
      8 C          66.7203   92.7399   16.1292 C.ar    1  UNL1        0.0032
      9 C          67.0642   93.8837   15.2217 C.ar    1  UNL1        0.0192
     10 C          66.5884   93.8817   13.7992 C.ar    1  UNL1        0.0842
     11 C          66.7692   94.8627   12.6790 C.ar    1  UNL1        0.0356
     12 C          66.0612   94.3233   11.4716 C.ar    1  UNL1        0.0801
     13 N          65.4428   93.0089   11.8456 N.ar    1  UNL1       -0.1694
     14 N          65.7687   92.7360   13.2842 N.ar    1  UNL1       -0.2253
     15 C          65.9850   94.9825   10.1263 C.3     1  UNL1        0.0421
     16 C          66.8776   94.5204    9.0130 C.3     1  UNL1        0.0064
     17 C          65.0162   96.1040    9.8946 C.3     1  UNL1        0.0064
     18 N          63.1531   83.7538   13.5506 N.3     1  UNL1       -0.2726
     19 C          63.9798   84.4587   14.5849 C.3     1  UNL1        0.0726
     20 C          64.1758   85.9437   14.5038 C.3     1  UNL1        0.0266
     21 C          63.5451   86.7236   13.3885 C.3     1  UNL1        0.0810
     22 C          62.7185   86.0187   12.3542 C.3     1  UNL1        0.0266
     23 C          62.5225   84.5338   12.4353 C.3     1  UNL1        0.0726
     24 C          62.9572   82.2689   13.6317 C.3     1  UNL1        0.0747
     25 C          62.3557   81.5275   12.4747 C.3     1  UNL1        0.0494
     26 C          63.2099   81.1476   11.3017 C.3     1  UNL1        0.1437
     27 C          64.2121   83.1444    9.9757 C.3     1  UNL1        0.1741
     28 O          64.3878   81.9967   10.9254 O.3     1  UNL1       -0.3511
@<TRIPOS>BOND
     1    27    28    1
     2    28    26    1
     3    26    25    1
     4    25    24    1
     5    24    18    1
     6    18    19    1
     7    19    20    1
     8    20    21    1
     9    21     1    1
    10     1     2   ar
    11     2     3   ar
    12     3     4   ar
    13     4     6    1
    14     6     7   ar
    15     7     8   ar
    16     8     9   ar
    17     9    10   ar
    18    10    11   ar
    19    11    12   ar
    20    12    15    1
    21    15    16    1
    22    15    17    1
    23    12    13   ar
    24    13    14   ar
    25     4     5   ar
    26    21    22    1
    27    22    23    1
    28    23    18    1
    29     5     1   ar
    30    14     6   ar
    31    14    10   ar
@<TRIPOS>MOLECULE
*****
 28 31 0 0 0
SMALL
GASTEIGER

@<TRIPOS>ATOM
      1 C          62.4989   90.0937   12.7785 C.ar    1  UNL1        0.2261
      2 N          61.0472   90.0331   13.1512 N.ar    1  UNL1       -0.1114
      3 N          60.3486   89.1580   12.1531 N.ar    1  UNL1       -0.1056
      4 C          61.3685   88.6778   11.1636 C.ar    1  UNL1        0.2673
      5 O          62.6975   89.2561   11.5501 O.2     1  UNL1       -0.4182
      6 C          61.1056   87.7773    9.9930 C.ar    1  UNL1        0.1376
      7 C          60.1815   88.2212    8.8980 C.ar    1  UNL1        0.0240
      8 C          59.9187   87.3207    7.7275 C.ar    1  UNL1        0.0032
      9 C          60.5799   85.9765    7.6520 C.ar    1  UNL1        0.0192
     10 C          61.5040   85.5326    8.7470 C.ar    1  UNL1        0.0842
     11 C          62.2933   84.2726    8.9451 C.ar    1  UNL1        0.0356
     12 C          63.0440   84.3943   10.2381 C.ar    1  UNL1        0.0801
     13 N          62.7186   85.7295   10.8391 N.ar    1  UNL1       -0.1694
     14 N          61.7669   86.4331    9.9175 N.ar    1  UNL1       -0.2253
     15 C          63.9593   83.3619   10.8267 C.3     1  UNL1        0.0421
     16 C          64.4561   82.2290    9.9783 C.3     1  UNL1        0.0064
     17 C          64.3778   83.4624   12.2636 C.3     1  UNL1        0.0064
     18 N          65.6968   92.3860   14.9622 N.3     1  UNL1       -0.2726
     19 C          64.7497   91.5082   15.7252 C.3     1  UNL1        0.0726
     20 C          63.6837   90.7441   14.9973 C.3     1  UNL1        0.0266
     21 C          63.5649   90.8578   13.5064 C.3     1  UNL1        0.0810
     22 C          64.5121   91.7356   12.7433 C.3     1  UNL1        0.0266
     23 C          65.5781   92.4997   13.4712 C.3     1  UNL1        0.0726
     24 C          66.7628   93.1501   15.6901 C.3     1  UNL1        0.0747
     25 C          67.9251   92.4221   16.2977 C.3     1  UNL1        0.0494
     26 C          69.1766   92.2083   15.4990 C.3     1  UNL1        0.1437
     27 C          68.9165   91.6197   12.9819 C.3     1  UNL1        0.1741
     28 O          69.2255   92.6189   14.0571 O.3     1  UNL1       -0.3511
@<TRIPOS>BOND
     1    27    28    1
     2    28    26    1
     3    26    25    1
     4    25    24    1
     5    24    18    1
     6    18    19    1
     7    19    20    1
     8    20    21    1
     9    21     1    1
    10     1     2   ar
    11     2     3   ar
    12     3     4   ar
    13     4     6    1
    14     6     7   ar
    15     7     8   ar
    16     8     9   ar
    17     9    10   ar
    18    10    11   ar
    19    11    12   ar
    20    12    15    1
    21    15    16    1
    22    15    17    1
    23    12    13   ar
    24    13    14   ar
    25     4     5   ar
    26    21    22    1
    27    22    23    1
    28    23    18    1
    29     5     1   ar
    30    14     6   ar
    31    14    10   ar
