@<TRIPOS>MOLECULE
*****
 45 49 0 0 0
SMALL
GASTEIGER

@<TRIPOS>ATOM
      1 C          60.3606   89.1411   10.8904 C.3     1  UNL1        0.1443
      2 O          59.6831   88.5319   12.0820 O.3     1  UNL1       -0.3813
      3 H          59.9087   89.0399   12.8769 H       1  UNL1        0.2105
      4 C          60.1715   88.5376    9.5302 C.3     1  UNL1        0.1041
      5 C          59.3702   89.0083    7.1041 C.2     1  UNL1        0.2527
      6 O          58.6018   87.7201    7.1079 O.2     1  UNL1       -0.2724
      7 N          60.1550   89.4171    8.3152 N.am    1  UNL1       -0.3012
      8 H          60.6594   90.2626    8.3127 H       1  UNL1        0.1495
      9 C          59.3538   89.8878    5.8890 C.3     1  UNL1        0.2269
     10 C          58.2562   91.9035    4.6714 C.3     1  UNL1        0.1748
     11 O          58.1408   90.7133    5.5770 O.3     1  UNL1       -0.3418
     12 C          59.9988   87.0547    9.3851 C.3     1  UNL1        0.0484
     13 C          61.1840   86.1450    9.5187 C.ar    1  UNL1       -0.0204
     14 C          61.9707   85.7548    8.3027 C.ar    1  UNL1       -0.0042
     15 C          63.1558   84.8450    8.4363 C.ar    1  UNL1       -0.0003
     16 C          63.5543   84.3256    9.7859 C.ar    1  UNL1        0.0015
     17 C          62.7675   84.7159   11.0020 C.ar    1  UNL1        0.0173
     18 C          61.5824   85.6256   10.8684 C.ar    1  UNL1       -0.0027
     19 C          63.1659   84.1964   12.3515 C.ar    1  UNL1        0.0813
     20 C          63.1912   82.7189   12.6090 C.ar    1  UNL1        0.0191
     21 C          63.5896   82.1995   13.9585 C.ar    1  UNL1        0.0031
     22 C          63.9628   83.1576   15.0508 C.ar    1  UNL1        0.0207
     23 C          63.9375   84.6351   14.7933 C.ar    1  UNL1        0.0988
     24 N          63.5390   85.1545   13.4437 N.ar    1  UNL1       -0.2438
     25 C          61.2272   90.3538   11.0590 C.3     1  UNL1        0.1001
     26 N          62.7115   90.1998   11.2105 N.3     1  UNL1       -0.2928
     27 H          63.1406   90.7047   10.4350 H       1  UNL1        0.1236
     28 C          63.3905   90.6708   12.4624 C.3     1  UNL1        0.0849
     29 C          63.0340   90.0587   13.7846 C.3     1  UNL1        0.0604
     30 C          63.7130   90.5296   15.0365 C.3     1  UNL1        0.1363
     31 C          62.7609   89.4625   15.4891 C.3     1  UNL1        0.0402
     32 C          63.2088   89.6641   16.9065 C.3     1  UNL1        0.0072
     33 C          64.1609   90.7313   16.4539 C.3     1  UNL1        0.0402
     34 O          64.7485   91.6126   14.9661 O.3     1  UNL1       -0.4676
     35 C          65.1049   92.2246   13.6439 C.ar    1  UNL1        0.2216
     36 N          66.1405   93.3076   13.5735 N.ar    1  UNL1       -0.2107
     37 C          66.4970   93.9196   12.2513 C.ar    1  UNL1        0.0977
     38 C          65.8179   93.4487   10.9994 C.ar    1  UNL1       -0.0031
     39 C          64.7825   92.3657   11.0698 C.ar    1  UNL1       -0.0011
     40 C          64.4260   91.7537   12.3920 C.ar    1  UNL1        0.0449
     41 C          66.1744   94.0607    9.6771 C.3     1  UNL1        0.0279
     42 C          66.7202   95.4568    9.6197 C.3     1  UNL1        0.0041
     43 C          65.4229   95.9859   10.1554 C.3     1  UNL1        0.0003
     44 C          68.0175   94.9276    9.0839 C.3     1  UNL1        0.0003
     45 C          67.2658   96.8528    9.5622 C.3     1  UNL1        0.0003
@<TRIPOS>BOND
     1    10    11    1
     2    11     9    1
     3     9     5    1
     4     5     6    2
     5     5     7   am
     6     7     4    1
     7     4    12    1
     8    12    13    1
     9    13    14   ar
    10    14    15   ar
    11    15    16   ar
    12    16    17   ar
    13    17    19    1
    14    19    20   ar
    15    20    21   ar
    16    21    22   ar
    17    22    23   ar
    18    23    24   ar
    19    17    18   ar
    20     4     1    1
    21     1     2    1
    22     1    25    1
    23    25    26    1
    24    28    26    1
    25    28    29    1
    26    29    30    1
    27    30    31    1
    28    31    32    1
    29    32    33    1
    30    30    34    1
    31    34    35    1
    32    35    36   ar
    33    36    37   ar
    34    37    38   ar
    35    38    41    1
    36    41    42    1
    37    42    43    1
    38    42    44    1
    39    42    45    1
    40    38    39   ar
    41    39    40   ar
    42    18    13   ar
    43    40    28    1
    44    24    19   ar
    45    33    30    1
    46    40    35   ar
    47     7     8    1
    48     2     3    1
    49    26    27    1
@<TRIPOS>MOLECULE
*****
 45 49 0 0 0
SMALL
GASTEIGER

@<TRIPOS>ATOM
      1 C          60.7865   89.7020   10.9507 C.3     1  UNL1        0.1443
      2 O          60.2100   89.3546   12.2912 O.3     1  UNL1       -0.3813
      3 H          60.5655   89.9582   12.9623 H       1  UNL1        0.2105
      4 C          60.3933   88.9121    9.7377 C.3     1  UNL1        0.1041
      5 C          59.4152   89.0197    7.3332 C.2     1  UNL1        0.2527
      6 O          58.6149   87.7801    7.6033 O.2     1  UNL1       -0.2724
      7 N          60.3044   89.5857    8.4004 N.am    1  UNL1       -0.3012
      8 H          60.8296   90.3992    8.2232 H       1  UNL1        0.1495
      9 C          59.3263   89.6933    5.9959 C.3     1  UNL1        0.2269
     10 C          58.5403   91.8351    4.7529 C.3     1  UNL1        0.1748
     11 O          58.2872   90.7480    5.7550 O.3     1  UNL1       -0.3418
     12 C          60.0889   87.4486    9.8621 C.3     1  UNL1        0.0484
     13 C          61.1900   86.4392    9.7246 C.ar    1  UNL1       -0.0204
     14 C          61.9290   86.3077    8.4260 C.ar    1  UNL1       -0.0042
     15 C          63.0300   85.2983    8.2885 C.ar    1  UNL1       -0.0003
     16 C          63.3921   84.4205    9.4497 C.ar    1  UNL1        0.0015
     17 C          62.6530   84.5521   10.7484 C.ar    1  UNL1        0.0173
     18 C          61.5520   85.5614   10.8859 C.ar    1  UNL1       -0.0027
     19 C          63.0150   83.6743   11.9096 C.ar    1  UNL1        0.0813
     20 C          62.6086   82.2304   11.9136 C.ar    1  UNL1        0.0191
     21 C          62.9707   81.3526   13.0748 C.ar    1  UNL1        0.0031
     22 C          63.7391   81.9187   14.2320 C.ar    1  UNL1        0.0207
     23 C          64.1455   83.3625   14.2280 C.ar    1  UNL1        0.0988
     24 N          63.7835   84.2404   13.0667 N.ar    1  UNL1       -0.2438
     25 C          61.7562   90.8393   10.8232 C.3     1  UNL1        0.1001
     26 N          63.2320   90.5710   10.8298 N.3     1  UNL1       -0.2928
     27 H          63.5199   90.4843    9.8552 H       1  UNL1        0.1236
     28 C          64.1694   91.5497   11.4729 C.3     1  UNL1        0.0849
     29 C          64.8804   92.5696   10.6337 C.3     1  UNL1        0.0604
     30 C          65.8177   93.5483   11.2767 C.3     1  UNL1        0.1363
     31 C          65.8454   93.8867    9.8155 C.3     1  UNL1        0.0402
     32 C          66.8233   94.9907   10.0898 C.3     1  UNL1        0.0072
     33 C          66.7956   94.6522   11.5509 C.3     1  UNL1        0.0402
     34 O          66.0441   93.5071   12.7589 O.3     1  UNL1       -0.4676
     35 C          65.3331   92.4872   13.5981 C.ar    1  UNL1        0.2216
     36 N          65.5596   92.4460   15.0804 N.ar    1  UNL1       -0.2107
     37 C          64.8486   91.4261   15.9196 C.ar    1  UNL1        0.0977
     38 C          63.9112   90.4474   15.2766 C.ar    1  UNL1       -0.0031
     39 C          63.6848   90.4886   13.7944 C.ar    1  UNL1       -0.0011
     40 C          64.3958   91.5085   12.9551 C.ar    1  UNL1        0.0449
     41 C          63.2002   89.4275   16.1158 C.3     1  UNL1        0.0279
     42 C          63.5893   87.9814   16.0286 C.3     1  UNL1        0.0041
     43 C          62.8373   87.7026   17.2961 C.3     1  UNL1        0.0003
     44 C          64.3413   88.2602   14.7609 C.3     1  UNL1        0.0003
     45 C          63.9783   86.5354   15.9414 C.3     1  UNL1        0.0003
@<TRIPOS>BOND
     1    10    11    1
     2    11     9    1
     3     9     5    1
     4     5     6    2
     5     5     7   am
     6     7     4    1
     7     4    12    1
     8    12    13    1
     9    13    14   ar
    10    14    15   ar
    11    15    16   ar
    12    16    17   ar
    13    17    19    1
    14    19    20   ar
    15    20    21   ar
    16    21    22   ar
    17    22    23   ar
    18    23    24   ar
    19    17    18   ar
    20     4     1    1
    21     1     2    1
    22     1    25    1
    23    25    26    1
    24    28    26    1
    25    28    29    1
    26    29    30    1
    27    30    31    1
    28    31    32    1
    29    32    33    1
    30    30    34    1
    31    34    35    1
    32    35    36   ar
    33    36    37   ar
    34    37    38   ar
    35    38    41    1
    36    41    42    1
    37    42    43    1
    38    42    44    1
    39    42    45    1
    40    38    39   ar
    41    39    40   ar
    42    18    13   ar
    43    40    28    1
    44    24    19   ar
    45    33    30    1
    46    40    35   ar
    47     7     8    1
    48     2     3    1
    49    26    27    1
@<TRIPOS>MOLECULE
*****
 45 49 0 0 0
SMALL
GASTEIGER

@<TRIPOS>ATOM
      1 C          60.5630   89.5886   11.7673 C.3     1  UNL1        0.1443
      2 O          59.4392   90.5618   11.9673 O.3     1  UNL1       -0.3813
      3 H          58.6234   90.1954   11.5916 H       1  UNL1        0.2105
      4 C          61.9395   89.9206   12.2621 C.3     1  UNL1        0.1041
      5 C          63.1545   89.2924   14.4710 C.2     1  UNL1        0.2527
      6 O          63.8978   88.2051   13.7530 O.2     1  UNL1       -0.2724
      7 N          62.1754   90.1501   13.7256 N.am    1  UNL1       -0.3012
      8 H          61.6876   90.8637   14.1968 H       1  UNL1        0.1495
      9 C          63.3904   89.5219   15.9345 C.3     1  UNL1        0.2269
     10 C          64.2568   91.9237   16.4153 C.3     1  UNL1        0.1748
     11 O          63.1796   90.8854   16.5233 O.3     1  UNL1       -0.3418
     12 C          63.0802   90.0230   11.2935 C.3     1  UNL1        0.0484
     13 C          64.0348   91.1769   11.3782 C.ar    1  UNL1       -0.0204
     14 C          64.0904   92.1871   10.2709 C.ar    1  UNL1       -0.0042
     15 C          65.0451   93.3410   10.3557 C.ar    1  UNL1       -0.0003
     16 C          65.9441   93.4847   11.5477 C.ar    1  UNL1        0.0015
     17 C          65.8885   92.4744   12.6552 C.ar    1  UNL1        0.0173
     18 C          64.9339   91.3205   12.5704 C.ar    1  UNL1       -0.0027
     19 C          66.7875   92.6180   13.8472 C.ar    1  UNL1        0.0813
     20 C          67.3028   91.3968   14.5495 C.ar    1  UNL1        0.0191
     21 C          68.2018   91.5404   15.7416 C.ar    1  UNL1        0.0031
     22 C          68.5856   92.9053   16.2314 C.ar    1  UNL1        0.0207
     23 C          68.0704   94.1265   15.5291 C.ar    1  UNL1        0.0988
     24 N          67.1713   93.9828   14.3370 N.ar    1  UNL1       -0.2438
     25 C          60.3101   88.2834   11.0726 C.3     1  UNL1        0.1001
     26 N          60.9311   87.0225   11.5962 N.3     1  UNL1       -0.2928
     27 H          60.1832   86.4870   12.0371 H       1  UNL1        0.1236
     28 C          61.6374   86.0887   10.6585 C.3     1  UNL1        0.0849
     29 C          61.2971   86.0935    9.1976 C.3     1  UNL1        0.0604
     30 C          62.0034   85.1598    8.2599 C.3     1  UNL1        0.1363
     31 C          61.0471   85.9277    7.3961 C.3     1  UNL1        0.0402
     32 C          61.5221   85.1667    6.1938 C.3     1  UNL1        0.0072
     33 C          62.4784   84.3989    7.0576 C.3     1  UNL1        0.0402
     34 O          63.0499   84.2213    8.7831 O.3     1  UNL1       -0.4676
     35 C          63.3902   84.2164   10.2440 C.ar    1  UNL1        0.2216
     36 N          64.4368   83.2778   10.7671 N.ar    1  UNL1       -0.2107
     37 C          64.7771   83.2729   12.2280 C.ar    1  UNL1        0.0977
     38 C          64.0708   84.2067   13.1657 C.ar    1  UNL1       -0.0031
     39 C          63.0243   85.1452   12.6426 C.ar    1  UNL1       -0.0011
     40 C          62.6840   85.1501   11.1817 C.ar    1  UNL1        0.0449
     41 C          64.4111   84.2018   14.6266 C.3     1  UNL1        0.0279
     42 C          63.4212   84.7170   15.6290 C.3     1  UNL1        0.0041
     43 C          64.2766   85.9289   15.8510 C.3     1  UNL1        0.0003
     44 C          62.5657   83.5049   15.4070 C.3     1  UNL1        0.0003
     45 C          62.4313   85.2321   16.6314 C.3     1  UNL1        0.0003
@<TRIPOS>BOND
     1    10    11    1
     2    11     9    1
     3     9     5    1
     4     5     6    2
     5     5     7   am
     6     7     4    1
     7     4    12    1
     8    12    13    1
     9    13    14   ar
    10    14    15   ar
    11    15    16   ar
    12    16    17   ar
    13    17    19    1
    14    19    20   ar
    15    20    21   ar
    16    21    22   ar
    17    22    23   ar
    18    23    24   ar
    19    17    18   ar
    20     4     1    1
    21     1     2    1
    22     1    25    1
    23    25    26    1
    24    28    26    1
    25    28    29    1
    26    29    30    1
    27    30    31    1
    28    31    32    1
    29    32    33    1
    30    30    34    1
    31    34    35    1
    32    35    36   ar
    33    36    37   ar
    34    37    38   ar
    35    38    41    1
    36    41    42    1
    37    42    43    1
    38    42    44    1
    39    42    45    1
    40    38    39   ar
    41    39    40   ar
    42    18    13   ar
    43    40    28    1
    44    24    19   ar
    45    33    30    1
    46    40    35   ar
    47     7     8    1
    48     2     3    1
    49    26    27    1
@<TRIPOS>MOLECULE
*****
 45 49 0 0 0
SMALL
GASTEIGER

@<TRIPOS>ATOM
      1 C          60.0446   89.1328   10.7572 C.3     1  UNL1        0.1443
      2 O          59.3995   90.1812   11.6145 O.3     1  UNL1       -0.3813
      3 H          58.8508   89.7535   12.2904 H       1  UNL1        0.2105
      4 C          60.9490   89.5371    9.6310 C.3     1  UNL1        0.1041
      5 C          59.5147   89.2795    7.4801 C.2     1  UNL1        0.2527
      6 O          59.2383   87.8487    7.8358 O.2     1  UNL1       -0.2724
      7 N          60.3701   90.1237    8.3777 N.am    1  UNL1       -0.3012
      8 H          60.5515   91.0627    8.1443 H       1  UNL1        0.1495
      9 C          58.9358   89.8661    6.2268 C.3     1  UNL1        0.2269
     10 C          59.2351   91.9657    4.7261 C.3     1  UNL1        0.1748
     11 O          59.7913   90.7098    5.3289 O.3     1  UNL1       -0.3418
     12 C          62.4324   89.3548    9.7581 C.3     1  UNL1        0.0484
     13 C          63.2175   90.2246   10.6946 C.ar    1  UNL1       -0.0204
     14 C          63.1146   90.0154   12.1764 C.ar    1  UNL1       -0.0042
     15 C          63.8996   90.8853   13.1129 C.ar    1  UNL1       -0.0003
     16 C          64.7876   91.9642   12.5677 C.ar    1  UNL1        0.0015
     17 C          64.8905   92.1735   11.0859 C.ar    1  UNL1        0.0173
     18 C          64.1055   91.3036   10.1494 C.ar    1  UNL1       -0.0027
     19 C          65.7785   93.2524   10.5407 C.ar    1  UNL1        0.0813
     20 C          67.0801   92.8937    9.8871 C.ar    1  UNL1        0.0191
     21 C          67.9680   93.9727    9.3419 C.ar    1  UNL1        0.0031
     22 C          67.5544   95.4105    9.4503 C.ar    1  UNL1        0.0207
     23 C          66.2528   95.7692   10.1039 C.ar    1  UNL1        0.0988
     24 N          65.3649   94.6902   10.6491 N.ar    1  UNL1       -0.2438
     25 C          59.7851   87.6801   11.0263 C.3     1  UNL1        0.1001
     26 N          60.8666   86.8207   11.6108 N.3     1  UNL1       -0.2928
     27 H          60.4252   86.2315   12.3168 H       1  UNL1        0.1236
     28 C          61.6632   85.9106   10.7235 C.3     1  UNL1        0.0849
     29 C          61.4226   85.9074    9.2429 C.3     1  UNL1        0.0604
     30 C          62.2191   84.9973    8.3557 C.3     1  UNL1        0.1363
     31 C          61.3004   85.7368    7.4287 C.3     1  UNL1        0.0402
     32 C          61.8789   84.9928    6.2617 C.3     1  UNL1        0.0072
     33 C          62.7976   84.2533    7.1887 C.3     1  UNL1        0.0402
     34 O          63.2563   84.0905    8.9490 O.3     1  UNL1       -0.4676
     35 C          63.4968   84.0938   10.4295 C.ar    1  UNL1        0.2216
     36 N          64.5340   83.1869   11.0228 N.ar    1  UNL1       -0.2107
     37 C          64.7746   83.1901   12.5034 C.ar    1  UNL1        0.0977
     38 C          63.9780   84.1002   13.3907 C.ar    1  UNL1       -0.0031
     39 C          62.9409   85.0070   12.7974 C.ar    1  UNL1       -0.0011
     40 C          62.7003   85.0038   11.3168 C.ar    1  UNL1        0.0449
     41 C          64.2186   84.1035   14.8713 C.3     1  UNL1        0.0279
     42 C          63.8123   85.2898   15.6945 C.3     1  UNL1        0.0041
     43 C          62.6169   84.5337   16.1940 C.3     1  UNL1        0.0003
     44 C          65.0077   86.0458   15.1950 C.3     1  UNL1        0.0003
     45 C          63.4060   86.4760   16.5178 C.3     1  UNL1        0.0003
@<TRIPOS>BOND
     1    10    11    1
     2    11     9    1
     3     9     5    1
     4     5     6    2
     5     5     7   am
     6     7     4    1
     7     4    12    1
     8    12    13    1
     9    13    14   ar
    10    14    15   ar
    11    15    16   ar
    12    16    17   ar
    13    17    19    1
    14    19    20   ar
    15    20    21   ar
    16    21    22   ar
    17    22    23   ar
    18    23    24   ar
    19    17    18   ar
    20     4     1    1
    21     1     2    1
    22     1    25    1
    23    25    26    1
    24    28    26    1
    25    28    29    1
    26    29    30    1
    27    30    31    1
    28    31    32    1
    29    32    33    1
    30    30    34    1
    31    34    35    1
    32    35    36   ar
    33    36    37   ar
    34    37    38   ar
    35    38    41    1
    36    41    42    1
    37    42    43    1
    38    42    44    1
    39    42    45    1
    40    38    39   ar
    41    39    40   ar
    42    18    13   ar
    43    40    28    1
    44    24    19   ar
    45    33    30    1
    46    40    35   ar
    47     7     8    1
    48     2     3    1
    49    26    27    1
@<TRIPOS>MOLECULE
*****
 45 49 0 0 0
SMALL
GASTEIGER

@<TRIPOS>ATOM
      1 C          60.6701   89.7107   11.6689 C.3     1  UNL1        0.1443
      2 O          59.5658   90.7260   11.6720 O.3     1  UNL1       -0.3813
      3 H          58.7741   90.3437   11.2623 H       1  UNL1        0.2105
      4 C          62.0087   90.0569   12.2503 C.3     1  UNL1        0.1041
      5 C          63.1084   89.2155   14.4487 C.2     1  UNL1        0.2527
      6 O          63.8689   88.1815   13.6725 O.2     1  UNL1       -0.2724
      7 N          62.1783   90.1532   13.7376 N.am    1  UNL1       -0.3012
      8 H          61.6792   90.8319   14.2470 H       1  UNL1        0.1495
      9 C          63.2780   89.3118   15.9359 C.3     1  UNL1        0.2269
     10 C          64.1711   91.6762   16.5378 C.3     1  UNL1        0.1748
     11 O          63.0990   90.6310   16.6273 O.3     1  UNL1       -0.3418
     12 C          63.1779   90.3068   11.3444 C.3     1  UNL1        0.0484
     13 C          64.2205   91.3152   11.7263 C.ar    1  UNL1       -0.0204
     14 C          64.8718   91.2464   13.0758 C.ar    1  UNL1       -0.0042
     15 C          65.9144   92.2548   13.4577 C.ar    1  UNL1       -0.0003
     16 C          66.3059   93.3321   12.4902 C.ar    1  UNL1        0.0015
     17 C          65.6547   93.4010   11.1406 C.ar    1  UNL1        0.0173
     18 C          64.6120   92.3925   10.7587 C.ar    1  UNL1       -0.0027
     19 C          66.0461   94.4782   10.1730 C.ar    1  UNL1        0.0813
     20 C          67.1858   94.2556    9.2235 C.ar    1  UNL1        0.0191
     21 C          67.5772   95.3328    8.2559 C.ar    1  UNL1        0.0031
     22 C          66.8291   96.6328    8.2379 C.ar    1  UNL1        0.0207
     23 C          65.6894   96.8555    9.1874 C.ar    1  UNL1        0.0988
     24 N          65.2980   95.7781   10.1550 N.ar    1  UNL1       -0.2438
     25 C          60.4355   88.3493   11.0845 C.3     1  UNL1        0.1001
     26 N          61.1654   87.1605   11.6359 N.3     1  UNL1       -0.2928
     27 H          60.4970   86.6435   12.2071 H       1  UNL1        0.1236
     28 C          61.7963   86.1691   10.7036 C.3     1  UNL1        0.0849
     29 C          61.4470   86.1837    9.2449 C.3     1  UNL1        0.0604
     30 C          62.0778   85.1923    8.3126 C.3     1  UNL1        0.1363
     31 C          61.1731   86.0182    7.4469 C.3     1  UNL1        0.0402
     32 C          61.5838   85.2131    6.2497 C.3     1  UNL1        0.0072
     33 C          62.4885   84.3872    7.1154 C.3     1  UNL1        0.0402
     34 O          63.0580   84.1863    8.8390 O.3     1  UNL1       -0.4676
     35 C          63.4073   84.1716   10.2977 C.ar    1  UNL1        0.2216
     36 N          64.3875   83.1655   10.8241 N.ar    1  UNL1       -0.2107
     37 C          64.7368   83.1509   12.2828 C.ar    1  UNL1        0.0977
     38 C          64.1060   84.1423   13.2151 C.ar    1  UNL1       -0.0031
     39 C          63.1258   85.1484   12.6887 C.ar    1  UNL1       -0.0011
     40 C          62.7765   85.1630   11.2300 C.ar    1  UNL1        0.0449
     41 C          64.4553   84.1277   14.6738 C.3     1  UNL1        0.0279
     42 C          63.5667   84.8194   15.6648 C.3     1  UNL1        0.0041
     43 C          62.5640   83.7108   15.5394 C.3     1  UNL1        0.0003
     44 C          64.5694   85.9280   15.7901 C.3     1  UNL1        0.0003
     45 C          62.6781   85.5110   16.6557 C.3     1  UNL1        0.0003
@<TRIPOS>BOND
     1    10    11    1
     2    11     9    1
     3     9     5    1
     4     5     6    2
     5     5     7   am
     6     7     4    1
     7     4    12    1
     8    12    13    1
     9    13    14   ar
    10    14    15   ar
    11    15    16   ar
    12    16    17   ar
    13    17    19    1
    14    19    20   ar
    15    20    21   ar
    16    21    22   ar
    17    22    23   ar
    18    23    24   ar
    19    17    18   ar
    20     4     1    1
    21     1     2    1
    22     1    25    1
    23    25    26    1
    24    28    26    1
    25    28    29    1
    26    29    30    1
    27    30    31    1
    28    31    32    1
    29    32    33    1
    30    30    34    1
    31    34    35    1
    32    35    36   ar
    33    36    37   ar
    34    37    38   ar
    35    38    41    1
    36    41    42    1
    37    42    43    1
    38    42    44    1
    39    42    45    1
    40    38    39   ar
    41    39    40   ar
    42    18    13   ar
    43    40    28    1
    44    24    19   ar
    45    33    30    1
    46    40    35   ar
    47     7     8    1
    48     2     3    1
    49    26    27    1
@<TRIPOS>MOLECULE
*****
 45 49 0 0 0
SMALL
GASTEIGER

@<TRIPOS>ATOM
      1 C          61.9653   89.9117   12.1896 C.3     1  UNL1        0.1443
      2 O          62.2296   90.7003   10.9413 O.3     1  UNL1       -0.3813
      3 H          61.4163   90.7556   10.4155 H       1  UNL1        0.2105
      4 C          63.0692   89.6802   13.1783 C.3     1  UNL1        0.1041
      5 C          63.8985   87.7502   14.7071 C.2     1  UNL1        0.2527
      6 O          63.5471   88.5599   15.9200 O.2     1  UNL1       -0.2724
      7 N          63.6595   88.3103   13.3364 N.am    1  UNL1       -0.3012
      8 H          63.8901   87.7789   12.5403 H       1  UNL1        0.1495
      9 C          64.4887   86.3803   14.8652 C.3     1  UNL1        0.2269
     10 C          62.8028   85.5408   16.6548 C.3     1  UNL1        0.1748
     11 O          64.1941   85.5740   16.0953 O.3     1  UNL1       -0.3418
     12 C          63.5829   90.8186   14.0090 C.3     1  UNL1        0.0484
     13 C          64.9938   91.2972   13.8350 C.ar    1  UNL1       -0.0204
     14 C          65.9717   91.1760   14.9659 C.ar    1  UNL1       -0.0042
     15 C          67.3827   91.6545   14.7920 C.ar    1  UNL1       -0.0003
     16 C          67.8157   92.2542   13.4871 C.ar    1  UNL1        0.0015
     17 C          66.8378   92.3754   12.3561 C.ar    1  UNL1        0.0173
     18 C          65.4269   91.8969   12.5301 C.ar    1  UNL1       -0.0027
     19 C          67.2708   92.9751   11.0512 C.ar    1  UNL1        0.0813
     20 C          68.0171   92.1403   10.0530 C.ar    1  UNL1        0.0191
     21 C          68.4501   92.7400    8.7481 C.ar    1  UNL1        0.0031
     22 C          68.1369   94.1745    8.4413 C.ar    1  UNL1        0.0207
     23 C          67.3907   95.0093    9.4395 C.ar    1  UNL1        0.0988
     24 N          66.9577   94.4096   10.7444 N.ar    1  UNL1       -0.2438
     25 C          60.5969   89.3546   12.4492 C.3     1  UNL1        0.1001
     26 N          60.2259   88.0005   11.9215 N.3     1  UNL1       -0.2928
     27 H          59.2272   87.8816   12.0916 H       1  UNL1        0.1236
     28 C          60.4619   87.6675   10.4780 C.3     1  UNL1        0.0849
     29 C          59.8009   88.4790    9.4034 C.3     1  UNL1        0.0604
     30 C          60.0368   88.1461    7.9600 C.3     1  UNL1        0.1363
     31 C          59.1069   89.3230    7.9401 C.3     1  UNL1        0.0402
     32 C          59.1020   89.2937    6.4403 C.3     1  UNL1        0.0072
     33 C          60.0319   88.1168    6.4603 C.3     1  UNL1        0.0402
     34 O          60.9337   87.0018    7.5912 O.3     1  UNL1       -0.4676
     35 C          61.5947   86.1904    8.6657 C.ar    1  UNL1        0.2216
     36 N          62.4917   85.0461    8.2968 N.ar    1  UNL1       -0.2107
     37 C          63.1527   84.2347    9.3714 C.ar    1  UNL1        0.0977
     38 C          62.9167   84.5676   10.8149 C.ar    1  UNL1       -0.0031
     39 C          62.0198   85.7119   11.1837 C.ar    1  UNL1       -0.0011
     40 C          61.3588   86.5233   10.1091 C.ar    1  UNL1        0.0449
     41 C          63.5777   83.7562   11.8894 C.3     1  UNL1        0.0279
     42 C          62.8508   82.6005   12.5109 C.3     1  UNL1        0.0041
     43 C          62.5609   83.4349   13.7232 C.3     1  UNL1        0.0003
     44 C          63.1407   81.7662   11.2985 C.3     1  UNL1        0.0003
     45 C          62.1239   81.4450   13.1324 C.3     1  UNL1        0.0003
@<TRIPOS>BOND
     1    10    11    1
     2    11     9    1
     3     9     5    1
     4     5     6    2
     5     5     7   am
     6     7     4    1
     7     4    12    1
     8    12    13    1
     9    13    14   ar
    10    14    15   ar
    11    15    16   ar
    12    16    17   ar
    13    17    19    1
    14    19    20   ar
    15    20    21   ar
    16    21    22   ar
    17    22    23   ar
    18    23    24   ar
    19    17    18   ar
    20     4     1    1
    21     1     2    1
    22     1    25    1
    23    25    26    1
    24    28    26    1
    25    28    29    1
    26    29    30    1
    27    30    31    1
    28    31    32    1
    29    32    33    1
    30    30    34    1
    31    34    35    1
    32    35    36   ar
    33    36    37   ar
    34    37    38   ar
    35    38    41    1
    36    41    42    1
    37    42    43    1
    38    42    44    1
    39    42    45    1
    40    38    39   ar
    41    39    40   ar
    42    18    13   ar
    43    40    28    1
    44    24    19   ar
    45    33    30    1
    46    40    35   ar
    47     7     8    1
    48     2     3    1
    49    26    27    1
@<TRIPOS>MOLECULE
*****
 45 49 0 0 0
SMALL
GASTEIGER

@<TRIPOS>ATOM
      1 C          60.0170   89.0649   10.6745 C.3     1  UNL1        0.1443
      2 O          59.3526   90.1133   11.5169 O.3     1  UNL1       -0.3813
      3 H          58.8143   89.6852   12.2008 H       1  UNL1        0.2105
      4 C          60.9105   89.4698    9.5398 C.3     1  UNL1        0.1041
      5 C          59.4333   89.1702    7.4236 C.2     1  UNL1        0.2527
      6 O          59.1430   87.7548    7.8267 O.2     1  UNL1       -0.2724
      7 N          60.3171   90.0276    8.2802 N.am    1  UNL1       -0.3012
      8 H          60.5076   90.9566    8.0156 H       1  UNL1        0.1495
      9 C          58.8399   89.7280    6.1640 C.3     1  UNL1        0.2269
     10 C          58.8018   91.8908    4.7249 C.3     1  UNL1        0.1748
     11 O          59.5693   90.7920    5.3985 O.3     1  UNL1       -0.3418
     12 C          62.3974   89.3169    9.6647 C.3     1  UNL1        0.0484
     13 C          63.1846   90.2898   10.4916 C.ar    1  UNL1       -0.0204
     14 C          63.9797   91.3715    9.8226 C.ar    1  UNL1       -0.0042
     15 C          64.7669   92.3444   10.6495 C.ar    1  UNL1       -0.0003
     16 C          64.7590   92.2356   12.1455 C.ar    1  UNL1        0.0015
     17 C          63.9639   91.1538   12.8146 C.ar    1  UNL1        0.0173
     18 C          63.1767   90.1809   11.9877 C.ar    1  UNL1       -0.0027
     19 C          63.9560   91.0450   14.3106 C.ar    1  UNL1        0.0813
     20 C          63.2352   89.9103   14.9763 C.ar    1  UNL1        0.0191
     21 C          63.2273   89.8015   16.4723 C.ar    1  UNL1        0.0031
     22 C          63.9402   90.8274   17.3027 C.ar    1  UNL1        0.0207
     23 C          64.6610   91.9620   16.6370 C.ar    1  UNL1        0.0988
     24 N          64.6689   92.0708   15.1409 N.ar    1  UNL1       -0.2438
     25 C          59.7878   87.6116   10.9669 C.3     1  UNL1        0.1001
     26 N          60.8971   86.7768   11.5349 N.3     1  UNL1       -0.2928
     27 H          60.4830   86.1908   12.2599 H       1  UNL1        0.1236
     28 C          61.6846   85.8666   10.6397 C.3     1  UNL1        0.0849
     29 C          61.4539   85.8885    9.1577 C.3     1  UNL1        0.0604
     30 C          62.2414   84.9784    8.2625 C.3     1  UNL1        0.1363
     31 C          61.3410   85.7460    7.3405 C.3     1  UNL1        0.0402
     32 C          61.9151   85.0094    6.1666 C.3     1  UNL1        0.0072
     33 C          62.8155   84.2418    7.0886 C.3     1  UNL1        0.0402
     34 O          63.2597   84.0463    8.8493 O.3     1  UNL1       -0.4676
     35 C          63.4904   84.0244   10.3313 C.ar    1  UNL1        0.2216
     36 N          64.5087   83.0923   10.9181 N.ar    1  UNL1       -0.2107
     37 C          64.7395   83.0703   12.4000 C.ar    1  UNL1        0.0977
     38 C          63.9519   83.9806   13.2952 C.ar    1  UNL1       -0.0031
     39 C          62.9336   84.9126   12.7085 C.ar    1  UNL1       -0.0011
     40 C          62.7029   84.9345   11.2265 C.ar    1  UNL1        0.0449
     41 C          64.1826   83.9586   14.7772 C.3     1  UNL1        0.0279
     42 C          63.8091   85.1476   15.6121 C.3     1  UNL1        0.0041
     43 C          65.0013   85.8910   15.0867 C.3     1  UNL1        0.0003
     44 C          62.6169   84.4042   16.1375 C.3     1  UNL1        0.0003
     45 C          63.4357   86.3365   16.4469 C.3     1  UNL1        0.0003
@<TRIPOS>BOND
     1    10    11    1
     2    11     9    1
     3     9     5    1
     4     5     6    2
     5     5     7   am
     6     7     4    1
     7     4    12    1
     8    12    13    1
     9    13    14   ar
    10    14    15   ar
    11    15    16   ar
    12    16    17   ar
    13    17    19    1
    14    19    20   ar
    15    20    21   ar
    16    21    22   ar
    17    22    23   ar
    18    23    24   ar
    19    17    18   ar
    20     4     1    1
    21     1     2    1
    22     1    25    1
    23    25    26    1
    24    28    26    1
    25    28    29    1
    26    29    30    1
    27    30    31    1
    28    31    32    1
    29    32    33    1
    30    30    34    1
    31    34    35    1
    32    35    36   ar
    33    36    37   ar
    34    37    38   ar
    35    38    41    1
    36    41    42    1
    37    42    43    1
    38    42    44    1
    39    42    45    1
    40    38    39   ar
    41    39    40   ar
    42    18    13   ar
    43    40    28    1
    44    24    19   ar
    45    33    30    1
    46    40    35   ar
    47     7     8    1
    48     2     3    1
    49    26    27    1
@<TRIPOS>MOLECULE
*****
 45 49 0 0 0
SMALL
GASTEIGER

@<TRIPOS>ATOM
      1 C          61.2835   88.8929    9.9582 C.3     1  UNL1        0.1443
      2 O          60.1921   89.1561    8.9634 O.3     1  UNL1       -0.3813
      3 H          60.0557   90.1127    8.8787 H       1  UNL1        0.2105
      4 C          61.6888   87.4830   10.2713 C.3     1  UNL1        0.1041
      5 C          61.4655   85.9383    8.1943 C.2     1  UNL1        0.2527
      6 O          59.9743   86.0960    8.2374 O.2     1  UNL1       -0.2724
      7 N          62.3226   86.6318    9.2113 N.am    1  UNL1       -0.3012
      8 H          63.3013   86.5283    9.1830 H       1  UNL1        0.1495
      9 C          62.0993   85.0871    7.1343 C.3     1  UNL1        0.2269
     10 C          61.7936   84.1076    4.7474 C.3     1  UNL1        0.1748
     11 O          61.2427   84.4016    6.1113 O.3     1  UNL1       -0.3418
     12 C          61.4603   86.9244   11.6445 C.3     1  UNL1        0.0484
     13 C          62.3899   85.8840   12.1952 C.ar    1  UNL1       -0.0204
     14 C          63.4605   86.2754   13.1702 C.ar    1  UNL1       -0.0042
     15 C          64.3901   85.2350   13.7209 C.ar    1  UNL1       -0.0003
     16 C          64.2491   83.8031   13.2967 C.ar    1  UNL1        0.0015
     17 C          63.1784   83.4117   12.3217 C.ar    1  UNL1        0.0173
     18 C          62.2488   84.4521   11.7710 C.ar    1  UNL1       -0.0027
     19 C          63.0374   81.9799   11.8975 C.ar    1  UNL1        0.0813
     20 C          63.2554   81.5975   10.4636 C.ar    1  UNL1        0.0191
     21 C          63.1144   80.1657   10.0394 C.ar    1  UNL1        0.0031
     22 C          62.7554   79.1162   11.0492 C.ar    1  UNL1        0.0207
     23 C          62.5375   79.4985   12.4831 C.ar    1  UNL1        0.0988
     24 N          62.6785   80.9304   12.9073 N.ar    1  UNL1       -0.2438
     25 C          61.9696   90.0395   10.6398 C.3     1  UNL1        0.1001
     26 N          63.3757   89.8832   11.1380 N.3     1  UNL1       -0.2928
     27 H          63.9841   90.3168   10.4435 H       1  UNL1        0.1236
     28 C          63.7668   90.4502   12.4705 C.3     1  UNL1        0.0849
     29 C          63.2713   89.8092   13.7329 C.3     1  UNL1        0.0604
     30 C          63.6623   90.3761   15.0654 C.3     1  UNL1        0.1363
     31 C          62.7903   89.1983   15.3854 C.3     1  UNL1        0.0402
     32 C          62.9614   89.4696   16.8508 C.3     1  UNL1        0.0072
     33 C          63.8334   90.6475   16.5308 C.3     1  UNL1        0.0402
     34 O          64.5488   91.5841   15.1356 O.3     1  UNL1       -0.4676
     35 C          65.0443   92.2250   13.8732 C.ar    1  UNL1        0.2216
     36 N          65.9309   93.4330   13.9434 N.ar    1  UNL1       -0.2107
     37 C          66.4264   94.0740   12.6810 C.ar    1  UNL1        0.0977
     38 C          66.0354   93.5070   11.3484 C.ar    1  UNL1       -0.0031
     39 C          65.1489   92.2990   11.2783 C.ar    1  UNL1       -0.0011
     40 C          64.6533   91.6581   12.5407 C.ar    1  UNL1        0.0449
     41 C          66.5309   94.1479   10.0860 C.3     1  UNL1        0.0279
     42 C          67.6070   93.4831    9.2797 C.3     1  UNL1        0.0041
     43 C          67.7023   92.3930   10.3057 C.3     1  UNL1        0.0003
     44 C          67.5117   94.5732    8.2537 C.3     1  UNL1        0.0003
     45 C          68.6831   92.8183    8.4735 C.3     1  UNL1        0.0003
@<TRIPOS>BOND
     1    10    11    1
     2    11     9    1
     3     9     5    1
     4     5     6    2
     5     5     7   am
     6     7     4    1
     7     4    12    1
     8    12    13    1
     9    13    14   ar
    10    14    15   ar
    11    15    16   ar
    12    16    17   ar
    13    17    19    1
    14    19    20   ar
    15    20    21   ar
    16    21    22   ar
    17    22    23   ar
    18    23    24   ar
    19    17    18   ar
    20     4     1    1
    21     1     2    1
    22     1    25    1
    23    25    26    1
    24    28    26    1
    25    28    29    1
    26    29    30    1
    27    30    31    1
    28    31    32    1
    29    32    33    1
    30    30    34    1
    31    34    35    1
    32    35    36   ar
    33    36    37   ar
    34    37    38   ar
    35    38    41    1
    36    41    42    1
    37    42    43    1
    38    42    44    1
    39    42    45    1
    40    38    39   ar
    41    39    40   ar
    42    18    13   ar
    43    40    28    1
    44    24    19   ar
    45    33    30    1
    46    40    35   ar
    47     7     8    1
    48     2     3    1
    49    26    27    1
@<TRIPOS>MOLECULE
*****
 45 49 0 0 0
SMALL
GASTEIGER

@<TRIPOS>ATOM
      1 C          62.2857   86.9697    9.9307 C.3     1  UNL1        0.1443
      2 O          62.7405   86.5707    8.5581 O.3     1  UNL1       -0.3813
      3 H          63.0457   85.6501    8.5735 H       1  UNL1        0.2105
      4 C          61.7641   88.3547   10.1749 C.3     1  UNL1        0.1041
      5 C          59.9001   88.1809    8.3733 C.2     1  UNL1        0.2527
      6 O          59.8241   86.6992    8.5949 O.2     1  UNL1       -0.2724
      7 N          60.8701   89.0086    9.1633 N.am    1  UNL1       -0.3012
      8 H          60.9199   89.9810    9.0179 H       1  UNL1        0.1495
      9 C          59.0061   88.8348    7.3618 C.3     1  UNL1        0.2269
     10 C          58.7518   90.7077    5.5791 C.3     1  UNL1        0.1748
     11 O          59.5977   89.6829    6.2751 O.3     1  UNL1       -0.3418
     12 C          62.1364   89.0857   11.4306 C.3     1  UNL1        0.0484
     13 C          63.0912   90.2411   11.3707 C.ar    1  UNL1       -0.0204
     14 C          63.1567   91.0970   10.1406 C.ar    1  UNL1       -0.0042
     15 C          64.1114   92.2523   10.0808 C.ar    1  UNL1       -0.0003
     16 C          65.0007   92.5518   11.2510 C.ar    1  UNL1        0.0015
     17 C          64.9352   91.6959   12.4812 C.ar    1  UNL1        0.0173
     18 C          63.9804   90.5406   12.5410 C.ar    1  UNL1       -0.0027
     19 C          65.8245   91.9954   13.6514 C.ar    1  UNL1        0.0813
     20 C          67.3145   91.9066   13.5032 C.ar    1  UNL1        0.0191
     21 C          68.2037   92.2061   14.6735 C.ar    1  UNL1        0.0031
     22 C          67.6030   92.5944   15.9920 C.ar    1  UNL1        0.0207
     23 C          66.1129   92.6832   16.1401 C.ar    1  UNL1        0.0988
     24 N          65.2237   92.3837   14.9698 N.ar    1  UNL1       -0.2438
     25 C          62.3526   85.9836   11.0591 C.3     1  UNL1        0.1001
     26 N          63.1574   84.7267   10.9100 N.3     1  UNL1       -0.2928
     27 H          64.1226   85.0128   10.7462 H       1  UNL1        0.1236
     28 C          63.1870   83.7188   12.0207 C.3     1  UNL1        0.0849
     29 C          62.8818   82.2784   11.7347 C.3     1  UNL1        0.0604
     30 C          62.9114   81.2706   12.8452 C.3     1  UNL1        0.1363
     31 C          62.5468   80.4867   11.6193 C.3     1  UNL1        0.0402
     32 C          62.4797   79.2333   12.4407 C.3     1  UNL1        0.0072
     33 C          62.8443   80.0172   13.6666 C.3     1  UNL1        0.0402
     34 O          63.2462   81.7033   14.2419 O.3     1  UNL1       -0.4676
     35 C          63.5514   83.1438   14.5279 C.ar    1  UNL1        0.2216
     36 N          63.8862   83.5764   15.9246 N.ar    1  UNL1       -0.2107
     37 C          64.1915   85.0169   16.2107 C.ar    1  UNL1        0.0977
     38 C          64.1619   86.0247   15.1000 C.ar    1  UNL1       -0.0031
     39 C          63.8270   85.5920   13.7034 C.ar    1  UNL1       -0.0011
     40 C          63.5218   84.1516   13.4173 C.ar    1  UNL1        0.0449
     41 C          64.4671   87.4652   15.3861 C.3     1  UNL1        0.0279
     42 C          63.4474   88.3263   16.0709 C.3     1  UNL1        0.0041
     43 C          63.7661   89.4511   15.1312 C.3     1  UNL1        0.0003
     44 C          63.1287   87.2014   17.0107 C.3     1  UNL1        0.0003
     45 C          62.4278   89.1873   16.7558 C.3     1  UNL1        0.0003
@<TRIPOS>BOND
     1    10    11    1
     2    11     9    1
     3     9     5    1
     4     5     6    2
     5     5     7   am
     6     7     4    1
     7     4    12    1
     8    12    13    1
     9    13    14   ar
    10    14    15   ar
    11    15    16   ar
    12    16    17   ar
    13    17    19    1
    14    19    20   ar
    15    20    21   ar
    16    21    22   ar
    17    22    23   ar
    18    23    24   ar
    19    17    18   ar
    20     4     1    1
    21     1     2    1
    22     1    25    1
    23    25    26    1
    24    28    26    1
    25    28    29    1
    26    29    30    1
    27    30    31    1
    28    31    32    1
    29    32    33    1
    30    30    34    1
    31    34    35    1
    32    35    36   ar
    33    36    37   ar
    34    37    38   ar
    35    38    41    1
    36    41    42    1
    37    42    43    1
    38    42    44    1
    39    42    45    1
    40    38    39   ar
    41    39    40   ar
    42    18    13   ar
    43    40    28    1
    44    24    19   ar
    45    33    30    1
    46    40    35   ar
    47     7     8    1
    48     2     3    1
    49    26    27    1
