@<TRIPOS>MOLECULE
*****
 31 34 0 0 0
SMALL
GASTEIGER

@<TRIPOS>ATOM
      1 N          63.0684   90.0833   12.1999 N.am    1  UNL1       -0.2493
      2 C          62.1417   90.7518   11.2280 C.3     1  UNL1        0.1442
      3 C          61.5255   89.6881   10.3685 C.ar    1  UNL1        0.0833
      4 N          60.5379   89.7555    9.2415 N.ar    1  UNL1       -0.2524
      5 C          60.0962   88.4970    8.5552 C.ar    1  UNL1        0.0563
      6 C          59.1085   88.5644    7.4281 C.3     1  UNL1        0.0518
      7 C          60.6420   87.1712    8.9957 C.ar    1  UNL1        0.0072
      8 C          61.6296   87.1037   10.1227 C.ar    1  UNL1        0.0049
      9 C          62.0713   88.3622   10.8091 C.ar    1  UNL1        0.0689
     10 C          63.0249   88.6064   11.9409 C.2     1  UNL1        0.2542
     11 O          63.7990   87.5579   12.6835 O.2     1  UNL1       -0.2695
     12 C          62.1754   85.7778   10.5633 C.ar    1  UNL1        0.0106
     13 C          61.8061   85.2240   11.9076 C.ar    1  UNL1        0.0017
     14 C          62.3519   83.8982   12.3482 C.ar    1  UNL1        0.0114
     15 C          63.2669   83.1260   11.4445 C.ar    1  UNL1        0.0585
     16 CL         63.8127   81.8002   11.8851 Cl      1  UNL1       -0.0822
     17 C          63.6361   83.6798   10.1003 C.ar    1  UNL1        0.0228
     18 C          63.0904   85.0057    9.6596 C.ar    1  UNL1        0.0585
     19 CL         63.4596   85.5595    8.3154 Cl      1  UNL1       -0.0822
     20 C          65.5442   92.1462   15.3407 C.ar    1  UNL1        0.1388
     21 C          65.8266   92.3846   13.8870 C.ar    1  UNL1        0.0382
     22 C          65.0013   91.6969   12.8400 C.ar    1  UNL1        0.0180
     23 C          63.8936   90.7709   13.2468 C.ar    1  UNL1        0.0547
     24 C          63.6112   90.5324   14.7006 C.ar    1  UNL1        0.0180
     25 C          64.4366   91.2201   15.7475 C.ar    1  UNL1        0.0382
     26 C          67.7974   93.1926   16.1009 C.3     1  UNL1        0.2525
     27 O          66.3695   92.8338   16.3877 O.3     1  UNL1       -0.4714
     28 C          60.2002   85.9127    8.3093 C.3     1  UNL1        0.0934
     29 N          60.6620   85.6183    6.9129 N.3     1  UNL1       -0.3174
     30 H          60.2700   86.3087    6.2725 H       1  UNL1        0.1192
     31 H          60.3496   84.6862    6.6408 H       1  UNL1        0.1192
@<TRIPOS>BOND
     1    26    27    1
     2    27    20    1
     3    20    21   ar
     4    21    22   ar
     5    22    23   ar
     6    23     1    1
     7     1     2    1
     8     2     3    1
     9     3     4   ar
    10     4     5   ar
    11     5     6    1
    12     5     7   ar
    13     7    28    1
    14    28    29    1
    15     7     8   ar
    16     8    12    1
    17    12    13   ar
    18    13    14   ar
    19    14    15   ar
    20    15    16    1
    21    15    17   ar
    22    17    18   ar
    23    18    19    1
    24     8     9   ar
    25     9    10    1
    26    10    11    2
    27    23    24   ar
    28    24    25   ar
    29    25    20   ar
    30    10     1   am
    31     9     3   ar
    32    18    12   ar
    33    29    30    1
    34    29    31    1
@<TRIPOS>MOLECULE
*****
 31 34 0 0 0
SMALL
GASTEIGER

@<TRIPOS>ATOM
      1 N          62.9556   90.0785   11.9044 N.am    1  UNL1       -0.2493
      2 C          63.1148   89.8937   13.3845 C.3     1  UNL1        0.1442
      3 C          64.1587   90.8591   13.8623 C.ar    1  UNL1        0.0833
      4 N          64.7296   91.1275   15.2232 N.ar    1  UNL1       -0.2524
      5 C          65.7865   92.1774   15.3994 C.ar    1  UNL1        0.0563
      6 C          66.3574   92.4459   16.7603 C.3     1  UNL1        0.0518
      7 C          66.2723   92.9587   14.2148 C.ar    1  UNL1        0.0072
      8 C          65.7015   92.6902   12.8539 C.ar    1  UNL1        0.0049
      9 C          64.6447   91.6404   12.6777 C.ar    1  UNL1        0.0689
     10 C          63.9011   91.1580   11.4676 C.2     1  UNL1        0.2542
     11 O          64.0728   91.6658   10.0667 O.2     1  UNL1       -0.2695
     12 C          66.1874   93.4715   11.6692 C.ar    1  UNL1        0.0106
     13 C          65.5399   94.7776   11.3153 C.ar    1  UNL1        0.0017
     14 C          66.0257   95.5589   10.1308 C.ar    1  UNL1        0.0114
     15 C          67.1592   95.0343    9.2999 C.ar    1  UNL1        0.0585
     16 CL         67.6450   95.8156    8.1153 Cl      1  UNL1       -0.0822
     17 C          67.8066   93.7283    9.6538 C.ar    1  UNL1        0.0228
     18 C          67.3208   92.9469   10.8385 C.ar    1  UNL1        0.0585
     19 CL         67.9682   91.6410   11.1924 Cl      1  UNL1       -0.0822
     20 C          60.1363   87.7951    9.2420 C.ar    1  UNL1        0.1388
     21 C          60.1021   89.2946    9.2599 C.ar    1  UNL1        0.0382
     22 C          61.0419   90.0557   10.1474 C.ar    1  UNL1        0.0180
     23 C          62.0159   89.3173   11.0170 C.ar    1  UNL1        0.0547
     24 C          62.0501   87.8178   10.9991 C.ar    1  UNL1        0.0180
     25 C          61.1103   87.0568   10.1116 C.ar    1  UNL1        0.0382
     26 C          59.7271   85.9775    7.4313 C.3     1  UNL1        0.2525
     27 O          59.1966   87.0340    8.3545 O.3     1  UNL1       -0.4714
     28 C          67.3292   94.0086   14.3909 C.3     1  UNL1        0.0934
     29 N          68.6925   93.6248   14.8849 N.3     1  UNL1       -0.3174
     30 H          68.6239   93.2887   15.8455 H       1  UNL1        0.1192
     31 H          69.3073   94.4380   14.8523 H       1  UNL1        0.1192
@<TRIPOS>BOND
     1    26    27    1
     2    27    20    1
     3    20    21   ar
     4    21    22   ar
     5    22    23   ar
     6    23     1    1
     7     1     2    1
     8     2     3    1
     9     3     4   ar
    10     4     5   ar
    11     5     6    1
    12     5     7   ar
    13     7    28    1
    14    28    29    1
    15     7     8   ar
    16     8    12    1
    17    12    13   ar
    18    13    14   ar
    19    14    15   ar
    20    15    16    1
    21    15    17   ar
    22    17    18   ar
    23    18    19    1
    24     8     9   ar
    25     9    10    1
    26    10    11    2
    27    23    24   ar
    28    24    25   ar
    29    25    20   ar
    30    10     1   am
    31     9     3   ar
    32    18    12   ar
    33    29    30    1
    34    29    31    1
@<TRIPOS>MOLECULE
*****
 31 34 0 0 0
SMALL
GASTEIGER

@<TRIPOS>ATOM
      1 N          58.8587   94.2305   -0.4887 N.am    1  UNL1       -0.2493
      2 C          59.0082   93.3489    0.7156 C.3     1  UNL1        0.1442
      3 C          60.4735   93.1359    0.9551 C.ar    1  UNL1        0.0833
      4 N          61.2170   92.3560    1.9985 N.ar    1  UNL1       -0.2524
      5 C          62.7167   92.3260    1.9856 C.ar    1  UNL1        0.0563
      6 C          63.4603   91.5460    3.0292 C.3     1  UNL1        0.0518
      7 C          63.4728   93.0760    0.9294 C.ar    1  UNL1        0.0072
      8 C          62.7293   93.8560   -0.1140 C.ar    1  UNL1        0.0049
      9 C          61.2297   93.8860   -0.1012 C.ar    1  UNL1        0.0689
     10 C          60.2316   94.5625   -0.9935 C.2     1  UNL1        0.2542
     11 O          60.5505   95.4203   -2.1820 O.2     1  UNL1       -0.2695
     12 C          63.4854   94.6060   -1.1703 C.ar    1  UNL1        0.0106
     13 C          63.7707   93.9568   -2.4922 C.ar    1  UNL1        0.0017
     14 C          64.5268   94.7068   -3.5485 C.ar    1  UNL1        0.0114
     15 C          64.9977   96.1060   -3.2830 C.ar    1  UNL1        0.0585
     16 CL         65.7538   96.8560   -4.3392 Cl      1  UNL1       -0.0822
     17 C          64.7125   96.7552   -1.9612 C.ar    1  UNL1        0.0228
     18 C          63.9563   96.0052   -0.9048 C.ar    1  UNL1        0.0585
     19 CL         63.6711   96.6544    0.4170 Cl      1  UNL1       -0.0822
     20 C          54.9734   95.6335   -2.2738 C.ar    1  UNL1        0.1388
     21 C          55.9838   96.6339   -1.7961 C.ar    1  UNL1        0.0382
     22 C          57.2789   96.1662   -1.2010 C.ar    1  UNL1        0.0180
     23 C          57.5636   94.6981   -1.0838 C.ar    1  UNL1        0.0547
     24 C          56.5532   93.6977   -1.5615 C.ar    1  UNL1        0.0180
     25 C          55.2581   94.1654   -2.1566 C.ar    1  UNL1        0.0382
     26 C          52.4158   96.0377   -2.0614 C.3     1  UNL1        0.2525
     27 O          53.6783   96.1011   -2.8689 O.3     1  UNL1       -0.4714
     28 C          64.9725   93.0461    0.9165 C.3     1  UNL1        0.0934
     29 N          65.7486   93.9645    1.8133 N.3     1  UNL1       -0.3174
     30 H          65.5947   94.9309    1.5255 H       1  UNL1        0.1192
     31 H          66.7424   93.7444    1.7474 H       1  UNL1        0.1192
@<TRIPOS>BOND
     1    26    27    1
     2    27    20    1
     3    20    21   ar
     4    21    22   ar
     5    22    23   ar
     6    23     1    1
     7     1     2    1
     8     2     3    1
     9     3     4   ar
    10     4     5   ar
    11     5     6    1
    12     5     7   ar
    13     7    28    1
    14    28    29    1
    15     7     8   ar
    16     8    12    1
    17    12    13   ar
    18    13    14   ar
    19    14    15   ar
    20    15    16    1
    21    15    17   ar
    22    17    18   ar
    23    18    19    1
    24     8     9   ar
    25     9    10    1
    26    10    11    2
    27    23    24   ar
    28    24    25   ar
    29    25    20   ar
    30    10     1   am
    31     9     3   ar
    32    18    12   ar
    33    29    30    1
    34    29    31    1
@<TRIPOS>MOLECULE
*****
 31 34 0 0 0
SMALL
GASTEIGER

@<TRIPOS>ATOM
      1 N          61.6179   87.4278   10.3953 N.am    1  UNL1       -0.2493
      2 C          62.2123   88.2074   11.5306 C.3     1  UNL1        0.1442
      3 C          62.9569   87.2485   12.4116 C.ar    1  UNL1        0.0833
      4 N          63.7397   87.4477   13.6755 N.ar    1  UNL1       -0.2524
      5 C          64.3885   86.2745   14.3485 C.ar    1  UNL1        0.0563
      6 C          65.1714   86.4736   15.6125 C.3     1  UNL1        0.0518
      7 C          64.2544   84.9024   13.7577 C.ar    1  UNL1        0.0072
      8 C          63.4716   84.7033   12.4938 C.ar    1  UNL1        0.0049
      9 C          62.8228   85.8763   11.8207 C.ar    1  UNL1        0.0689
     10 C          61.9953   85.9871   10.5746 C.2     1  UNL1        0.2542
     11 O          61.6123   84.8559    9.6670 O.2     1  UNL1       -0.2695
     12 C          63.3375   83.3311   11.9029 C.ar    1  UNL1        0.0106
     13 C          64.0499   82.9908   10.6274 C.ar    1  UNL1        0.0017
     14 C          63.9158   81.6187   10.0366 C.ar    1  UNL1        0.0114
     15 C          63.0693   80.5867   10.7211 C.ar    1  UNL1        0.0585
     16 CL         62.9353   79.2146   10.1303 Cl      1  UNL1       -0.0822
     17 C          62.3570   80.9270   11.9966 C.ar    1  UNL1        0.0228
     18 C          62.4910   82.2992   12.5875 C.ar    1  UNL1        0.0585
     19 CL         61.7786   82.6395   13.8629 Cl      1  UNL1       -0.0822
     20 C          59.1383   89.1147    7.0403 C.ar    1  UNL1        0.1388
     21 C          59.1073   87.6431    7.3293 C.ar    1  UNL1        0.0382
     22 C          59.9339   87.0809    8.4476 C.ar    1  UNL1        0.0180
     23 C          60.7914   87.9901    9.2770 C.ar    1  UNL1        0.0547
     24 C          60.8224   89.4617    8.9880 C.ar    1  UNL1        0.0180
     25 C          59.9958   90.0239    7.8697 C.ar    1  UNL1        0.0382
     26 C          58.5496   91.0791    5.4453 C.3     1  UNL1        0.2525
     27 O          58.3117   89.6770    5.9220 O.3     1  UNL1       -0.4714
     28 C          64.9032   83.7292   14.4307 C.3     1  UNL1        0.0934
     29 N          64.2988   83.1503   15.6756 N.3     1  UNL1       -0.3174
     30 H          64.3561   83.8335   16.4308 H       1  UNL1        0.1192
     31 H          64.8082   82.3073   15.9405 H       1  UNL1        0.1192
@<TRIPOS>BOND
     1    26    27    1
     2    27    20    1
     3    20    21   ar
     4    21    22   ar
     5    22    23   ar
     6    23     1    1
     7     1     2    1
     8     2     3    1
     9     3     4   ar
    10     4     5   ar
    11     5     6    1
    12     5     7   ar
    13     7    28    1
    14    28    29    1
    15     7     8   ar
    16     8    12    1
    17    12    13   ar
    18    13    14   ar
    19    14    15   ar
    20    15    16    1
    21    15    17   ar
    22    17    18   ar
    23    18    19    1
    24     8     9   ar
    25     9    10    1
    26    10    11    2
    27    23    24   ar
    28    24    25   ar
    29    25    20   ar
    30    10     1   am
    31     9     3   ar
    32    18    12   ar
    33    29    30    1
    34    29    31    1
