@<TRIPOS>MOLECULE
*****
 64 71 0 0 0
SMALL
GASTEIGER

@<TRIPOS>ATOM
      1 N          62.1167   95.1691   -3.6052 N.3     1  UNL1       -0.1862
      2 C          61.1078   94.7113   -4.6164 C.3     1  UNL1        0.1775
      3 C          59.8267   94.0761   -4.1633 C.2     1  UNL1        0.2452
      4 O          58.8179   93.6183   -5.1746 O.2     1  UNL1       -0.2732
      5 N          59.5545   93.8986   -2.6989 N.am    1  UNL1       -0.2541
      6 C          58.2734   93.2634   -2.2458 C.3     1  UNL1        0.1577
      7 C          58.0012   93.0860   -0.7815 C.2     1  UNL1        0.2445
      8 O          56.7201   92.4507   -0.3283 O.2     1  UNL1       -0.2731
      9 N          59.0101   93.5437    0.2299 N.am    1  UNL1       -0.2705
     10 C          60.2912   94.1789   -0.2233 C.3     1  UNL1        0.1359
     11 C          60.5634   94.3564   -1.6877 C.3     1  UNL1        0.1908
     12 N          61.8445   94.9916   -2.1408 N.am    1  UNL1       -0.1863
     13 C          62.8534   95.4494   -1.1295 C.2     1  UNL1        0.3191
     14 O          62.5812   95.2719    0.3348 O.2     1  UNL1       -0.2512
     15 N          64.1345   96.0846   -1.5827 N.am    1  UNL1       -0.2836
     16 H          64.3131   96.2010   -2.5438 H       1  UNL1        0.1513
     17 C          63.3978   95.8043   -4.0583 C.3     1  UNL1        0.1188
     18 C          64.3549   95.4987   -6.4543 C.2     1  UNL1       -0.0034
     19 C          63.5375   96.2848   -5.4724 C.2     1  UNL1       -0.0071
     20 C          57.2646   92.8057   -3.2570 C.3     1  UNL1        0.0556
     21 C          56.2517   93.7717   -3.7963 C.ar    1  UNL1       -0.0198
     22 C          55.9115   93.7641   -5.2571 C.ar    1  UNL1       -0.0011
     23 C          54.8986   94.7302   -5.7964 C.ar    1  UNL1        0.0363
     24 C          54.2258   95.7037   -4.8747 C.ar    1  UNL1        0.1337
     25 O          53.2129   96.6698   -5.4140 O.3     1  UNL1       -0.5055
     26 C          54.5659   95.7113   -3.4138 C.ar    1  UNL1        0.0363
     27 C          55.5788   94.7453   -2.8745 C.ar    1  UNL1       -0.0011
     28 H          53.0004   96.6650   -6.3266 H       1  UNL1        0.2922
     29 C          58.7379   93.3663    1.6942 C.3     1  UNL1        0.1217
     30 C          59.7284   92.6444    2.5591 C.ar    1  UNL1        0.0135
     31 C          61.1855   92.6588    2.2032 C.ar    1  UNL1       -0.0012
     32 C          62.1759   91.9370    3.0681 C.ar    1  UNL1       -0.0002
     33 C          61.7093   91.2009    4.2888 C.ar    1  UNL1        0.0015
     34 C          60.2522   91.1866    4.6448 C.ar    1  UNL1        0.0170
     35 C          59.5019   90.5515    5.7778 C.ar    1  UNL1        0.0201
     36 C          58.0478   90.8807    5.6132 C.ar    1  UNL1        0.0760
     37 N          57.8994   91.7193    4.3785 N.ar    1  UNL1       -0.3242
     38 C          56.6142   92.2719    3.8372 C.3     1  UNL1        0.1305
     39 C          59.2617   91.9083    3.7799 C.ar    1  UNL1        0.0575
     40 C          60.1007   89.7311    6.8817 C.ar    1  UNL1        0.0207
     41 C          59.8139   88.2611    6.9640 C.ar    1  UNL1        0.0033
     42 C          60.4127   87.4408    8.0678 C.ar    1  UNL1        0.0238
     43 C          61.2983   88.0905    9.0894 C.ar    1  UNL1        0.1347
     44 N          61.5852   89.5605    9.0071 N.ar    1  UNL1       -0.2393
     45 C          60.9864   90.3808    7.9033 C.ar    1  UNL1        0.0990
     46 C          61.8971   87.2701   10.1932 C.2     1  UNL1        0.2668
     47 O          62.0819   85.7924   10.0139 O.2     1  UNL1       -0.2683
     48 N          62.3111   87.9274   11.4765 N.am    1  UNL1       -0.2719
     49 C          62.1262   89.4051   11.6558 C.3     1  UNL1        0.1129
     50 C          62.5402   90.0625   12.9390 C.3     1  UNL1        0.1169
     51 N          63.1389   89.2421   14.0428 N.3     1  UNL1       -0.1559
     52 C          63.3238   87.7643   13.8634 C.3     1  UNL1        0.1169
     53 C          62.9098   87.1070   12.5802 C.3     1  UNL1        0.1129
     54 S          63.5529   89.8994   15.3259 S.O2    1  UNL1        0.0458
     55 C          63.9669   90.5569   16.6091 C.3     1  UNL1        0.1960
     56 O          63.5756   91.2313   14.6363 O.2     1  UNL1       -0.1572
     57 O          63.5302   88.5675   16.0156 O.2     1  UNL1       -0.1572
     58 C          65.1433   96.5423   -0.5715 C.3     1  UNL1        0.1177
     59 C          65.1423   95.9540    0.8084 C.ar    1  UNL1       -0.0025
     60 C          65.0999   96.8542    2.0075 C.ar    1  UNL1       -0.0026
     61 C          65.0989   96.2659    3.3873 C.ar    1  UNL1       -0.0003
     62 C          65.1404   94.7774    3.5680 C.ar    1  UNL1       -0.0000
     63 C          65.1828   93.8771    2.3689 C.ar    1  UNL1       -0.0003
     64 C          65.1838   94.4655    0.9890 C.ar    1  UNL1       -0.0026
@<TRIPOS>BOND
     1    18    19    2
     2    19    17    1
     3    17     1    1
     4     1     2    1
     5     2     3    1
     6     3     4    2
     7     3     5   am
     8     5     6    1
     9     6    20    1
    10    20    21    1
    11    21    22   ar
    12    22    23   ar
    13    23    24   ar
    14    24    25    1
    15    24    26   ar
    16    26    27   ar
    17     6     7    1
    18     7     8    2
    19     7     9   am
    20     9    29    1
    21    29    30    1
    22    30    31   ar
    23    31    32   ar
    24    32    33   ar
    25    33    34   ar
    26    34    35   ar
    27    35    40    1
    28    40    41   ar
    29    41    42   ar
    30    42    43   ar
    31    43    46    1
    32    46    47    2
    33    46    48   am
    34    48    49    1
    35    49    50    1
    36    50    51    1
    37    51    54    1
    38    54    55    1
    39    54    56    2
    40    54    57    2
    41    51    52    1
    42    52    53    1
    43    43    44   ar
    44    44    45   ar
    45    35    36   ar
    46    36    37   ar
    47    37    38    1
    48    37    39   ar
    49     9    10    1
    50    11    10    1
    51    11    12    1
    52    12    13   am
    53    13    14    2
    54    13    15   am
    55    15    58    1
    56    58    59    1
    57    59    60   ar
    58    60    61   ar
    59    61    62   ar
    60    62    63   ar
    61    63    64   ar
    62    12     1    1
    63    64    59   ar
    64    11     5    1
    65    27    21   ar
    66    39    30   ar
    67    39    34   ar
    68    45    40   ar
    69    53    48    1
    70    25    28    1
    71    15    16    1
@<TRIPOS>MOLECULE
*****
 64 71 0 0 0
SMALL
GASTEIGER

@<TRIPOS>ATOM
      1 N          62.3184   94.1757   -3.3838 N.3     1  UNL1       -0.1862
      2 C          61.2327   94.2497   -4.4160 C.3     1  UNL1        0.1775
      3 C          59.8008   94.0553   -4.0137 C.2     1  UNL1        0.2452
      4 O          58.7150   94.1293   -5.0460 O.2     1  UNL1       -0.2732
      5 N          59.4547   93.7869   -2.5791 N.am    1  UNL1       -0.2541
      6 C          58.0228   93.5926   -2.1767 C.3     1  UNL1        0.1577
      7 C          57.6766   93.3242   -0.7421 C.2     1  UNL1        0.2445
      8 O          56.2447   93.1298   -0.3398 O.2     1  UNL1       -0.2731
      9 N          58.7624   93.2502    0.2902 N.am    1  UNL1       -0.2705
     10 C          60.1943   93.4446   -0.1121 C.3     1  UNL1        0.1359
     11 C          60.5404   93.7130   -1.5468 C.3     1  UNL1        0.1908
     12 N          61.9723   93.9074   -1.9492 N.am    1  UNL1       -0.1863
     13 C          63.0581   93.8334   -0.9168 C.2     1  UNL1        0.3191
     14 O          62.7120   93.5650    0.5178 O.2     1  UNL1       -0.2512
     15 N          64.4900   94.0278   -1.3192 N.am    1  UNL1       -0.2836
     16 H          64.7172   94.2039   -2.2608 H       1  UNL1        0.1513
     17 C          63.7503   94.3701   -3.7861 C.3     1  UNL1        0.1188
     18 C          64.5023   92.3337   -5.2135 C.2     1  UNL1       -0.0034
     19 C          64.2479   93.8063   -5.0840 C.2     1  UNL1       -0.0071
     20 C          56.9370   93.6665   -3.2090 C.3     1  UNL1        0.0556
     21 C          56.2717   92.4108   -3.6891 C.ar    1  UNL1       -0.0198
     22 C          56.0199   91.2828   -2.7329 C.ar    1  UNL1       -0.0011
     23 C          55.3546   90.0270   -3.2130 C.ar    1  UNL1        0.0363
     24 C          54.9412   89.8992   -4.6492 C.ar    1  UNL1        0.1337
     25 O          54.2759   88.6435   -5.1293 O.3     1  UNL1       -0.5055
     26 C          55.1931   91.0272   -5.6054 C.ar    1  UNL1        0.0363
     27 C          55.8583   92.2830   -5.1254 C.ar    1  UNL1       -0.0011
     28 H          54.1186   87.9389   -4.5320 H       1  UNL1        0.2922
     29 C          58.4163   92.9818    1.7248 C.3     1  UNL1        0.1217
     30 C          59.4511   92.4188    2.6534 C.ar    1  UNL1        0.0135
     31 C          60.9068   92.5249    2.3071 C.ar    1  UNL1       -0.0012
     32 C          61.9416   91.9619    3.2356 C.ar    1  UNL1       -0.0002
     33 C          61.5208   91.2928    4.5103 C.ar    1  UNL1        0.0015
     34 C          60.0652   91.1866    4.8567 C.ar    1  UNL1        0.0170
     35 C          59.3546   90.5870    6.0337 C.ar    1  UNL1        0.0201
     36 C          57.8807   90.7793    5.8327 C.ar    1  UNL1        0.0760
     37 N          57.6803   91.4979    4.5314 N.ar    1  UNL1       -0.3242
     38 C          56.3613   91.8950    3.9376 C.3     1  UNL1        0.1305
     39 C          59.0303   91.7497    3.9282 C.ar    1  UNL1        0.0575
     40 C          60.0041   89.9131    7.2061 C.ar    1  UNL1        0.0207
     41 C          59.7404   88.4617    7.4775 C.ar    1  UNL1        0.0033
     42 C          60.3899   87.7880    8.6498 C.ar    1  UNL1        0.0238
     43 C          61.3030   88.5656    9.5506 C.ar    1  UNL1        0.1347
     44 N          61.5666   90.0171    9.2792 N.ar    1  UNL1       -0.2393
     45 C          60.9172   90.6908    8.1069 C.ar    1  UNL1        0.0990
     46 C          61.9524   87.8919   10.7229 C.2     1  UNL1        0.2668
     47 O          61.8555   86.4033   10.8806 O.2     1  UNL1       -0.2683
     48 N          62.6987   88.7065   11.7375 N.am    1  UNL1       -0.2719
     49 C          62.7956   90.1950   11.5797 C.3     1  UNL1        0.1129
     50 C          63.5419   91.0098   12.5943 C.3     1  UNL1        0.1169
     51 N          64.1913   90.3359   13.7665 N.3     1  UNL1       -0.1559
     52 C          64.0944   88.8474   13.9242 C.3     1  UNL1        0.1169
     53 C          63.3481   88.0327   12.9097 C.3     1  UNL1        0.1129
     54 S          64.9376   91.1506   14.7810 S.O2    1  UNL1        0.0458
     55 C          65.6840   91.9654   15.7955 C.3     1  UNL1        0.1960
     56 O          66.1585   91.1166   13.9102 O.2     1  UNL1       -0.1572
     57 O          63.7167   91.1846   15.6518 O.2     1  UNL1       -0.1572
     58 C          65.5758   93.9538   -0.2869 C.3     1  UNL1        0.1177
     59 C          65.4114   94.6596    1.0264 C.ar    1  UNL1       -0.0025
     60 C          65.2471   96.1502    1.0614 C.ar    1  UNL1       -0.0026
     61 C          65.0827   96.8560    2.3747 C.ar    1  UNL1       -0.0003
     62 C          65.0826   96.0712    3.6531 C.ar    1  UNL1       -0.0000
     63 C          65.2469   94.5806    3.6181 C.ar    1  UNL1       -0.0003
     64 C          65.4113   93.8748    2.3048 C.ar    1  UNL1       -0.0026
@<TRIPOS>BOND
     1    18    19    2
     2    19    17    1
     3    17     1    1
     4     1     2    1
     5     2     3    1
     6     3     4    2
     7     3     5   am
     8     5     6    1
     9     6    20    1
    10    20    21    1
    11    21    22   ar
    12    22    23   ar
    13    23    24   ar
    14    24    25    1
    15    24    26   ar
    16    26    27   ar
    17     6     7    1
    18     7     8    2
    19     7     9   am
    20     9    29    1
    21    29    30    1
    22    30    31   ar
    23    31    32   ar
    24    32    33   ar
    25    33    34   ar
    26    34    35   ar
    27    35    40    1
    28    40    41   ar
    29    41    42   ar
    30    42    43   ar
    31    43    46    1
    32    46    47    2
    33    46    48   am
    34    48    49    1
    35    49    50    1
    36    50    51    1
    37    51    54    1
    38    54    55    1
    39    54    56    2
    40    54    57    2
    41    51    52    1
    42    52    53    1
    43    43    44   ar
    44    44    45   ar
    45    35    36   ar
    46    36    37   ar
    47    37    38    1
    48    37    39   ar
    49     9    10    1
    50    11    10    1
    51    11    12    1
    52    12    13   am
    53    13    14    2
    54    13    15   am
    55    15    58    1
    56    58    59    1
    57    59    60   ar
    58    60    61   ar
    59    61    62   ar
    60    62    63   ar
    61    63    64   ar
    62    12     1    1
    63    64    59   ar
    64    11     5    1
    65    27    21   ar
    66    39    30   ar
    67    39    34   ar
    68    45    40   ar
    69    53    48    1
    70    25    28    1
    71    15    16    1
