@<TRIPOS>MOLECULE
*****
 19 21 0 0 0
SMALL
GASTEIGER

@<TRIPOS>ATOM
      1 C          66.5741   93.0917   14.4033 C.3     1  UNL1        0.0952
      2 C          65.7187   92.6821   13.2410 C.2     1  UNL1        0.2298
      3 O          65.6323   93.5594   12.0275 O.2     1  UNL1       -0.2745
      4 N          64.9498   91.3952   13.2925 N.am    1  UNL1       -0.2586
      5 C          64.9377   90.4203   14.4324 C.3     1  UNL1        0.1029
      6 C          64.0385   89.2799   14.0574 C.3     1  UNL1        0.0495
      7 C          63.4947   89.5499   12.6857 C.ar    1  UNL1       -0.0068
      8 C          62.5595   88.7742   11.8062 C.ar    1  UNL1       -0.0029
      9 C          62.1876   89.3060   10.4538 C.ar    1  UNL1        0.0010
     10 C          62.7508   90.6133    9.9811 C.ar    1  UNL1        0.0013
     11 C          63.6860   91.3890   10.8606 C.ar    1  UNL1        0.0146
     12 C          64.0580   90.8573   12.2130 C.ar    1  UNL1        0.0499
     13 C          61.2523   88.5303    9.5742 C.ar    1  UNL1        0.0152
     14 C          60.2546   89.2532    8.7186 C.ar    1  UNL1        0.0985
     15 N          59.3194   88.4776    7.8389 N.ar    1  UNL1       -0.2423
     16 C          59.3819   86.9791    7.8149 C.ar    1  UNL1        0.0986
     17 C          60.3795   86.2562    8.6704 C.ar    1  UNL1        0.0164
     18 C          61.3148   87.0318    9.5501 C.ar    1  UNL1       -0.0188
     19 C          62.3125   86.3089   10.4057 C.3     1  UNL1        0.0311
@<TRIPOS>BOND
     1     1     2    1
     2     2     3    2
     3     2     4   am
     4     4     5    1
     5     5     6    1
     6     6     7    1
     7     7     8   ar
     8     8     9   ar
     9     9    13    1
    10    13    14   ar
    11    14    15   ar
    12    15    16   ar
    13    16    17   ar
    14    17    18   ar
    15    18    19    1
    16     9    10   ar
    17    10    11   ar
    18    11    12   ar
    19    12     4    1
    20    12     7   ar
    21    18    13   ar
@<TRIPOS>MOLECULE
*****
 19 21 0 0 0
SMALL
GASTEIGER

@<TRIPOS>ATOM
      1 C          66.9255   93.7356   14.4465 C.3     1  UNL1        0.0952
      2 C          66.0902   93.1861   13.3282 C.2     1  UNL1        0.2298
      3 O          65.9781   93.9391   12.0359 O.2     1  UNL1       -0.2745
      4 N          65.3671   91.8834   13.5024 N.am    1  UNL1       -0.2586
      5 C          65.3846   91.0227   14.7308 C.3     1  UNL1        0.1029
      6 C          64.5278   89.8202   14.4664 C.3     1  UNL1        0.0495
      7 C          63.9808   89.9377   13.0746 C.ar    1  UNL1       -0.0068
      8 C          63.0774   89.0484   12.2728 C.ar    1  UNL1       -0.0029
      9 C          62.6928   89.4342   10.8753 C.ar    1  UNL1        0.0010
     10 C          63.2115   90.7094   10.2795 C.ar    1  UNL1        0.0013
     11 C          64.1148   91.5987   11.0813 C.ar    1  UNL1        0.0146
     12 C          64.4995   91.2129   12.4789 C.ar    1  UNL1        0.0499
     13 C          61.7893   88.5448   10.0734 C.ar    1  UNL1        0.0152
     14 C          62.3111   87.2549    9.5133 C.ar    1  UNL1        0.0985
     15 N          61.4078   86.3655    8.7114 N.ar    1  UNL1       -0.2423
     16 C          59.9826   86.7661    8.4697 C.ar    1  UNL1        0.0986
     17 C          59.4608   88.0560    9.0298 C.ar    1  UNL1        0.0164
     18 C          60.3642   88.9454    9.8317 C.ar    1  UNL1       -0.0188
     19 C          59.8424   90.2354   10.3918 C.3     1  UNL1        0.0311
@<TRIPOS>BOND
     1     1     2    1
     2     2     3    2
     3     2     4   am
     4     4     5    1
     5     5     6    1
     6     6     7    1
     7     7     8   ar
     8     8     9   ar
     9     9    13    1
    10    13    14   ar
    11    14    15   ar
    12    15    16   ar
    13    16    17   ar
    14    17    18   ar
    15    18    19    1
    16     9    10   ar
    17    10    11   ar
    18    11    12   ar
    19    12     4    1
    20    12     7   ar
    21    18    13   ar
@<TRIPOS>MOLECULE
*****
 19 21 0 0 0
SMALL
GASTEIGER

@<TRIPOS>ATOM
      1 C          59.2186   86.7256    7.8267 C.3     1  UNL1        0.0952
      2 C          59.9448   87.8868    8.4386 C.2     1  UNL1        0.2298
      3 O          59.7546   89.2671    7.8834 O.2     1  UNL1       -0.2745
      4 N          60.8612   87.6675    9.6057 N.am    1  UNL1       -0.2586
      5 C          61.1494   86.3514   10.2652 C.3     1  UNL1        0.1029
      6 C          62.1166   86.5964   11.3853 C.3     1  UNL1        0.0495
      7 C          62.4261   88.0637   11.4181 C.ar    1  UNL1       -0.0068
      8 C          63.3141   88.8826   12.3073 C.ar    1  UNL1       -0.0029
      9 C          63.4262   90.3635   12.0967 C.ar    1  UNL1        0.0010
     10 C          62.6503   91.0255   10.9968 C.ar    1  UNL1        0.0013
     11 C          61.7623   90.2066   10.1076 C.ar    1  UNL1        0.0146
     12 C          61.6501   88.7257   10.3182 C.ar    1  UNL1        0.0499
     13 C          64.3143   91.1824   12.9859 C.ar    1  UNL1        0.0152
     14 C          64.2437   91.0158   14.4750 C.ar    1  UNL1        0.0985
     15 N          65.1317   91.8347   15.3642 N.ar    1  UNL1       -0.2423
     16 C          66.0904   92.8203   14.7644 C.ar    1  UNL1        0.0986
     17 C          66.1611   92.9868   13.2754 C.ar    1  UNL1        0.0164
     18 C          65.2730   92.1679   12.3861 C.ar    1  UNL1       -0.0188
     19 C          65.3436   92.3344   10.8971 C.3     1  UNL1        0.0311
@<TRIPOS>BOND
     1     1     2    1
     2     2     3    2
     3     2     4   am
     4     4     5    1
     5     5     6    1
     6     6     7    1
     7     7     8   ar
     8     8     9   ar
     9     9    13    1
    10    13    14   ar
    11    14    15   ar
    12    15    16   ar
    13    16    17   ar
    14    17    18   ar
    15    18    19    1
    16     9    10   ar
    17    10    11   ar
    18    11    12   ar
    19    12     4    1
    20    12     7   ar
    21    18    13   ar
@<TRIPOS>MOLECULE
*****
 19 21 0 0 0
SMALL
GASTEIGER

@<TRIPOS>ATOM
      1 C          60.2602   86.9431    9.7819 C.3     1  UNL1        0.0952
      2 C          61.2414   87.3381   10.8456 C.2     1  UNL1        0.2298
      3 O          61.5686   86.3838   11.9556 O.2     1  UNL1       -0.2745
      4 N          61.8952   88.6873   10.7991 N.am    1  UNL1       -0.2586
      5 C          61.6684   89.7415    9.7565 C.3     1  UNL1        0.1029
      6 C          62.5237   90.9249   10.1002 C.3     1  UNL1        0.0495
      7 C          63.2792   90.6020   11.3552 C.ar    1  UNL1       -0.0068
      8 C          64.2706   91.3885   12.1604 C.ar    1  UNL1       -0.0029
      9 C          64.8735   90.7921   13.3976 C.ar    1  UNL1        0.0010
     10 C          64.4851   89.4092   13.8296 C.ar    1  UNL1        0.0013
     11 C          63.4937   88.6226   13.0244 C.ar    1  UNL1        0.0146
     12 C          62.8908   89.2190   11.7872 C.ar    1  UNL1        0.0499
     13 C          65.8650   91.5787   14.2029 C.ar    1  UNL1        0.0152
     14 C          67.1861   91.9585   13.6025 C.ar    1  UNL1        0.0985
     15 N          68.1775   92.7450   14.4077 N.ar    1  UNL1       -0.2423
     16 C          67.8479   93.1517   15.8134 C.ar    1  UNL1        0.0986
     17 C          66.5268   92.7720   16.4138 C.ar    1  UNL1        0.0164
     18 C          65.5353   91.9854   15.6085 C.ar    1  UNL1       -0.0188
     19 C          64.2143   91.6056   16.2090 C.3     1  UNL1        0.0311
@<TRIPOS>BOND
     1     1     2    1
     2     2     3    2
     3     2     4   am
     4     4     5    1
     5     5     6    1
     6     6     7    1
     7     7     8   ar
     8     8     9   ar
     9     9    13    1
    10    13    14   ar
    11    14    15   ar
    12    15    16   ar
    13    16    17   ar
    14    17    18   ar
    15    18    19    1
    16     9    10   ar
    17    10    11   ar
    18    11    12   ar
    19    12     4    1
    20    12     7   ar
    21    18    13   ar
@<TRIPOS>MOLECULE
*****
 19 21 0 0 0
SMALL
GASTEIGER

@<TRIPOS>ATOM
      1 C          67.0872   93.7460   14.6881 C.3     1  UNL1        0.0952
      2 C          66.1409   92.6311   14.3538 C.2     1  UNL1        0.2298
      3 O          65.7484   91.6392   15.4082 O.2     1  UNL1       -0.2745
      4 N          65.5874   92.5082   12.9651 N.am    1  UNL1       -0.2586
      5 C          65.8874   93.4200   11.8125 C.3     1  UNL1        0.1029
      6 C          65.1221   92.9272   10.6203 C.3     1  UNL1        0.0495
      7 C          64.3491   91.7108   11.0360 C.ar    1  UNL1       -0.0068
      8 C          63.4205   90.8055   10.2822 C.ar    1  UNL1       -0.0029
      9 C          62.7796   89.6413   10.9777 C.ar    1  UNL1        0.0010
     10 C          63.0672   89.3823   12.4269 C.ar    1  UNL1        0.0013
     11 C          63.9957   90.2876   13.1807 C.ar    1  UNL1        0.0146
     12 C          64.6367   91.4518   12.4852 C.ar    1  UNL1        0.0499
     13 C          61.8510   88.7360   10.2239 C.ar    1  UNL1        0.0152
     14 C          62.3645   87.4539    9.6385 C.ar    1  UNL1        0.0985
     15 N          61.4360   86.5486    8.8848 N.ar    1  UNL1       -0.2423
     16 C          59.9938   86.9253    8.7163 C.ar    1  UNL1        0.0986
     17 C          59.4802   88.2073    9.3017 C.ar    1  UNL1        0.0164
     18 C          60.4089   89.1127   10.0555 C.ar    1  UNL1       -0.0188
     19 C          59.8953   90.3947   10.6408 C.3     1  UNL1        0.0311
@<TRIPOS>BOND
     1     1     2    1
     2     2     3    2
     3     2     4   am
     4     4     5    1
     5     5     6    1
     6     6     7    1
     7     7     8   ar
     8     8     9   ar
     9     9    13    1
    10    13    14   ar
    11    14    15   ar
    12    15    16   ar
    13    16    17   ar
    14    17    18   ar
    15    18    19    1
    16     9    10   ar
    17    10    11   ar
    18    11    12   ar
    19    12     4    1
    20    12     7   ar
    21    18    13   ar
@<TRIPOS>MOLECULE
*****
 19 21 0 0 0
SMALL
GASTEIGER

@<TRIPOS>ATOM
      1 C          66.2401   92.7142   15.0885 C.3     1  UNL1        0.0952
      2 C          65.2343   91.7388   14.5526 C.2     1  UNL1        0.2298
      3 O          64.5769   90.7562   15.4757 O.2     1  UNL1       -0.2745
      4 N          64.8861   91.7460   13.0936 N.am    1  UNL1       -0.2586
      5 C          65.4582   92.6649   12.0551 C.3     1  UNL1        0.1029
      6 C          64.8303   92.3224   10.7367 C.3     1  UNL1        0.0495
      7 C          63.8700   91.1920   10.9602 C.ar    1  UNL1       -0.0068
      8 C          62.9687   90.4410   10.0256 C.ar    1  UNL1       -0.0029
      9 C          62.1018   89.3338   10.5476 C.ar    1  UNL1        0.0010
     10 C          62.1363   88.9775   12.0043 C.ar    1  UNL1        0.0013
     11 C          63.0376   89.7285   12.9389 C.ar    1  UNL1        0.0146
     12 C          63.9045   90.8358   12.4169 C.ar    1  UNL1        0.0499
     13 C          61.2004   88.5827    9.6130 C.ar    1  UNL1        0.0152
     14 C          60.2187   89.3275    8.7576 C.ar    1  UNL1        0.0985
     15 N          59.3174   88.5765    7.8230 N.ar    1  UNL1       -0.2423
     16 C          59.3977   87.0807    7.7437 C.ar    1  UNL1        0.0986
     17 C          60.3794   86.3359    8.5991 C.ar    1  UNL1        0.0164
     18 C          61.2808   87.0870    9.5337 C.ar    1  UNL1       -0.0188
     19 C          62.2625   86.3423   10.3891 C.3     1  UNL1        0.0311
@<TRIPOS>BOND
     1     1     2    1
     2     2     3    2
     3     2     4   am
     4     4     5    1
     5     5     6    1
     6     6     7    1
     7     7     8   ar
     8     8     9   ar
     9     9    13    1
    10    13    14   ar
    11    14    15   ar
    12    15    16   ar
    13    16    17   ar
    14    17    18   ar
    15    18    19    1
    16     9    10   ar
    17    10    11   ar
    18    11    12   ar
    19    12     4    1
    20    12     7   ar
    21    18    13   ar
@<TRIPOS>MOLECULE
*****
 19 21 0 0 0
SMALL
GASTEIGER

@<TRIPOS>ATOM
      1 C          64.2016   91.5780   12.9918 C.3     1  UNL1        0.0952
      2 C          64.2530   90.1381   13.4090 C.2     1  UNL1        0.2298
      3 O          65.0570   89.7332   14.6088 O.2     1  UNL1       -0.2745
      4 N          63.5005   89.1031   12.6263 N.am    1  UNL1       -0.2586
      5 C          62.6586   89.3565   11.4110 C.3     1  UNL1        0.1029
      6 C          62.0956   88.0430   10.9552 C.3     1  UNL1        0.0495
      7 C          62.5895   86.9779   11.8888 C.ar    1  UNL1       -0.0068
      8 C          62.3607   85.4961   11.9319 C.ar    1  UNL1       -0.0029
      9 C          63.0003   84.6695   13.0078 C.ar    1  UNL1        0.0010
     10 C          63.8685   85.3247   14.0406 C.ar    1  UNL1        0.0013
     11 C          64.0973   86.8065   13.9976 C.ar    1  UNL1        0.0146
     12 C          63.4578   87.6331   12.9216 C.ar    1  UNL1        0.0499
     13 C          62.7715   83.1876   13.0509 C.ar    1  UNL1        0.0152
     14 C          62.1099   82.5653   14.2446 C.ar    1  UNL1        0.0985
     15 N          61.8812   81.0835   14.2878 N.ar    1  UNL1       -0.2423
     16 C          62.3140   80.2239   13.1372 C.ar    1  UNL1        0.0986
     17 C          62.9756   80.8462   11.9434 C.ar    1  UNL1        0.0164
     18 C          63.2043   82.3281   11.9003 C.ar    1  UNL1       -0.0188
     19 C          63.8659   82.9504   10.7065 C.3     1  UNL1        0.0311
@<TRIPOS>BOND
     1     1     2    1
     2     2     3    2
     3     2     4   am
     4     4     5    1
     5     5     6    1
     6     6     7    1
     7     7     8   ar
     8     8     9   ar
     9     9    13    1
    10    13    14   ar
    11    14    15   ar
    12    15    16   ar
    13    16    17   ar
    14    17    18   ar
    15    18    19    1
    16     9    10   ar
    17    10    11   ar
    18    11    12   ar
    19    12     4    1
    20    12     7   ar
    21    18    13   ar
@<TRIPOS>MOLECULE
*****
 19 21 0 0 0
SMALL
GASTEIGER

@<TRIPOS>ATOM
      1 C          63.5204   91.4837   11.9457 C.3     1  UNL1        0.0952
      2 C          63.1302   90.0574   11.6933 C.2     1  UNL1        0.2298
      3 O          62.3531   89.6994   10.4614 O.2     1  UNL1       -0.2745
      4 N          63.5172   88.9894   12.6728 N.am    1  UNL1       -0.2586
      5 C          64.2899   89.1950   13.9419 C.3     1  UNL1        0.1029
      6 C          64.4496   87.8609   14.6087 C.3     1  UNL1        0.0495
      7 C          63.7756   86.8307   13.7517 C.ar    1  UNL1       -0.0068
      8 C          63.6122   85.3477   13.9062 C.ar    1  UNL1       -0.0029
      9 C          62.8725   84.5621   12.8642 C.ar    1  UNL1        0.0010
     10 C          62.2962   85.2596   11.6678 C.ar    1  UNL1        0.0013
     11 C          62.4596   86.7426   11.5133 C.ar    1  UNL1        0.0146
     12 C          63.1993   87.5281   12.5552 C.ar    1  UNL1        0.0499
     13 C          62.7090   83.0790   13.0187 C.ar    1  UNL1        0.0152
     14 C          62.0791   82.5191   14.2596 C.ar    1  UNL1        0.0985
     15 N          61.9156   81.0361   14.4141 N.ar    1  UNL1       -0.2423
     16 C          62.3821   80.1129   13.3277 C.ar    1  UNL1        0.0986
     17 C          63.0120   80.6728   12.0868 C.ar    1  UNL1        0.0164
     18 C          63.1755   82.1559   11.9323 C.ar    1  UNL1       -0.0188
     19 C          63.8054   82.7158   10.6915 C.3     1  UNL1        0.0311
@<TRIPOS>BOND
     1     1     2    1
     2     2     3    2
     3     2     4   am
     4     4     5    1
     5     5     6    1
     6     6     7    1
     7     7     8   ar
     8     8     9   ar
     9     9    13    1
    10    13    14   ar
    11    14    15   ar
    12    15    16   ar
    13    16    17   ar
    14    17    18   ar
    15    18    19    1
    16     9    10   ar
    17    10    11   ar
    18    11    12   ar
    19    12     4    1
    20    12     7   ar
    21    18    13   ar
@<TRIPOS>MOLECULE
*****
 19 21 0 0 0
SMALL
GASTEIGER

@<TRIPOS>ATOM
      1 C          63.2740   89.3050   16.4612 C.3     1  UNL1        0.0952
      2 C          63.5083   89.8966   15.1028 C.2     1  UNL1        0.2298
      3 O          62.7716   89.3572   13.9128 O.2     1  UNL1       -0.2745
      4 N          64.4793   91.0275   14.9345 N.am    1  UNL1       -0.2586
      5 C          65.2847   91.6678   16.0260 C.3     1  UNL1        0.1029
      6 C          66.1185   92.7526   15.4112 C.3     1  UNL1        0.0495
      7 C          65.8284   92.7828   13.9398 C.ar    1  UNL1       -0.0068
      8 C          66.3559   93.6433   12.8303 C.ar    1  UNL1       -0.0029
      9 C          65.8703   93.4376   11.4261 C.ar    1  UNL1        0.0010
     10 C          64.8572   92.3714   11.1314 C.ar    1  UNL1        0.0013
     11 C          64.3297   91.5109   12.2410 C.ar    1  UNL1        0.0146
     12 C          64.8153   91.7165   13.6452 C.ar    1  UNL1        0.0499
     13 C          66.3978   94.2982   10.3164 C.ar    1  UNL1        0.0152
     14 C          65.8214   95.6641   10.0879 C.ar    1  UNL1        0.0985
     15 N          66.3488   96.5246    8.9783 N.ar    1  UNL1       -0.2423
     16 C          67.4526   96.0193    8.0972 C.ar    1  UNL1        0.0986
     17 C          68.0290   94.6535    8.3257 C.ar    1  UNL1        0.0164
     18 C          67.5015   93.7929    9.4354 C.ar    1  UNL1       -0.0188
     19 C          68.0779   92.4270    9.6639 C.3     1  UNL1        0.0311
@<TRIPOS>BOND
     1     1     2    1
     2     2     3    2
     3     2     4   am
     4     4     5    1
     5     5     6    1
     6     6     7    1
     7     7     8   ar
     8     8     9   ar
     9     9    13    1
    10    13    14   ar
    11    14    15   ar
    12    15    16   ar
    13    16    17   ar
    14    17    18   ar
    15    18    19    1
    16     9    10   ar
    17    10    11   ar
    18    11    12   ar
    19    12     4    1
    20    12     7   ar
    21    18    13   ar
