@<TRIPOS>MOLECULE
*****
 27 30 0 0 0
SMALL
GASTEIGER

@<TRIPOS>ATOM
      1 C          63.4194   88.4577   12.4846 C.ar    1  UNL1        0.0686
      2 C          63.6469   87.0905   13.0581 C.ar    1  UNL1        0.1144
      3 N          62.7699   86.1252   12.3171 N.ar    1  UNL1       -0.2064
      4 C          62.0002   86.8959   11.2857 C.ar    1  UNL1        0.0838
      5 C          60.9858   86.4712   10.2657 C.ar    1  UNL1        0.0195
      6 C          60.3727   87.4881    9.3492 C.ar    1  UNL1        0.0082
      7 C          60.7742   88.9296    9.4527 C.ar    1  UNL1        0.0347
      8 BR         60.1611   89.9466    8.5361 Br      1  UNL1       -0.0490
      9 C          61.7886   89.3543   10.4727 C.ar    1  UNL1        0.0095
     10 C          62.4017   88.3374   11.3892 C.ar    1  UNL1        0.0328
     11 C          66.1079   93.5193   14.2602 C.3     1  UNL1        0.0897
     12 N          65.4358   92.2539   13.8163 N.3     1  UNL1       -0.2686
     13 C          65.3698   91.0752   14.7416 C.3     1  UNL1        0.0938
     14 C          64.6977   89.8098   14.2977 C.3     1  UNL1        0.1082
     15 N          64.0915   89.7231   12.9285 N.pl3   1  UNL1       -0.3034
     16 C          64.1574   90.9018   12.0031 C.3     1  UNL1        0.1082
     17 C          64.8295   92.1672   12.4470 C.3     1  UNL1        0.0938
     18 S          62.6784   84.6485   12.5642 S.O2    1  UNL1        0.0860
     19 O          63.1211   84.3854   11.1555 O.2     1  UNL1       -0.1476
     20 O          62.2357   84.9116   13.9730 O.2     1  UNL1       -0.1476
     21 C          62.5870   83.1718   12.8114 C.ar    1  UNL1        0.1278
     22 C          63.0048   82.2052   11.7432 C.ar    1  UNL1        0.0227
     23 C          62.9133   80.7286   11.9904 C.ar    1  UNL1        0.0310
     24 C          62.4040   80.2185   13.3059 C.ar    1  UNL1        0.1402
     25 F          62.3126   78.7419   13.5530 F       1  UNL1       -0.2042
     26 C          61.9862   81.1851   14.3741 C.ar    1  UNL1        0.0310
     27 C          62.0776   82.6618   14.1268 C.ar    1  UNL1        0.0227
@<TRIPOS>BOND
     1    11    12    1
     2    12    13    1
     3    13    14    1
     4    14    15    1
     5    15     1    1
     6     1     2   ar
     7     2     3   ar
     8     3    18    1
     9    18    19    2
    10    18    20    2
    11    18    21    1
    12    21    22   ar
    13    22    23   ar
    14    23    24   ar
    15    24    25    1
    16    24    26   ar
    17    26    27   ar
    18     3     4   ar
    19     4     5   ar
    20     5     6   ar
    21     6     7   ar
    22     7     8    1
    23     7     9   ar
    24     9    10   ar
    25    15    16    1
    26    16    17    1
    27    17    12    1
    28    10     1   ar
    29    27    21   ar
    30    10     4   ar
@<TRIPOS>MOLECULE
*****
 27 30 0 0 0
SMALL
GASTEIGER

@<TRIPOS>ATOM
      1 C          62.7536   86.0368   12.4399 C.ar    1  UNL1        0.0686
      2 C          63.6402   86.9962   13.1771 C.ar    1  UNL1        0.1144
      3 N          63.4607   88.3549   12.5676 N.ar    1  UNL1       -0.2064
      4 C          62.4633   88.2353   11.4537 C.ar    1  UNL1        0.0838
      5 C          61.8965   89.2459   10.5011 C.ar    1  UNL1        0.0195
      6 C          60.8927   88.8237    9.4696 C.ar    1  UNL1        0.0082
      7 C          60.4557   87.3910    9.3907 C.ar    1  UNL1        0.0347
      8 BR         59.4518   86.9688    8.3590 Br      1  UNL1       -0.0490
      9 C          61.0224   86.3804   10.3432 C.ar    1  UNL1        0.0095
     10 C          62.0262   86.8026   11.3748 C.ar    1  UNL1        0.0328
     11 C          62.2118   80.1663   13.5556 C.3     1  UNL1        0.0897
     12 N          62.3472   81.6339   13.2767 N.3     1  UNL1       -0.2686
     13 C          62.6340   82.1092   11.8832 C.3     1  UNL1        0.0938
     14 C          62.7694   83.5768   11.6043 C.3     1  UNL1        0.1082
     15 N          62.6181   84.5691   12.7188 N.pl3   1  UNL1       -0.3034
     16 C          62.3314   84.0939   14.1124 C.3     1  UNL1        0.1082
     17 C          62.1959   82.6263   14.3913 C.3     1  UNL1        0.0938
     18 S          64.1566   89.6126   12.9967 S.O2    1  UNL1        0.0860
     19 O          63.7243   90.2848   11.7274 O.2     1  UNL1       -0.1476
     20 O          64.5888   88.9404   14.2661 O.2     1  UNL1       -0.1476
     21 C          64.8524   90.8703   13.4258 C.ar    1  UNL1        0.1278
     22 C          65.1798   91.9288   12.4147 C.ar    1  UNL1        0.0227
     23 C          65.8756   93.1863   12.8439 C.ar    1  UNL1        0.0310
     24 C          66.2442   93.3855   14.2843 C.ar    1  UNL1        0.1402
     25 F          66.9400   94.6430   14.7134 F       1  UNL1       -0.2042
     26 C          65.9168   92.3269   15.2954 C.ar    1  UNL1        0.0310
     27 C          65.2210   91.0693   14.8662 C.ar    1  UNL1        0.0227
@<TRIPOS>BOND
     1    11    12    1
     2    12    13    1
     3    13    14    1
     4    14    15    1
     5    15     1    1
     6     1     2   ar
     7     2     3   ar
     8     3    18    1
     9    18    19    2
    10    18    20    2
    11    18    21    1
    12    21    22   ar
    13    22    23   ar
    14    23    24   ar
    15    24    25    1
    16    24    26   ar
    17    26    27   ar
    18     3     4   ar
    19     4     5   ar
    20     5     6   ar
    21     6     7   ar
    22     7     8    1
    23     7     9   ar
    24     9    10   ar
    25    15    16    1
    26    16    17    1
    27    17    12    1
    28    10     1   ar
    29    27    21   ar
    30    10     4   ar
@<TRIPOS>MOLECULE
*****
 27 30 0 0 0
SMALL
GASTEIGER

@<TRIPOS>ATOM
      1 C          62.5118   88.3088   11.5417 C.ar    1  UNL1        0.0686
      2 C          63.2014   89.5925   11.8975 C.ar    1  UNL1        0.1144
      3 N          64.0831   89.3320   13.0827 N.ar    1  UNL1       -0.2064
      4 C          63.9385   87.8872   13.4594 C.ar    1  UNL1        0.0838
      5 C          64.5657   87.0658   14.5465 C.ar    1  UNL1        0.0195
      6 C          64.2217   85.6121   14.6812 C.ar    1  UNL1        0.0082
      7 C          63.2506   84.9797   13.7289 C.ar    1  UNL1        0.0347
      8 BR         62.9066   83.5259   13.8636 Br      1  UNL1       -0.0490
      9 C          62.6234   85.8011   12.6417 C.ar    1  UNL1        0.0095
     10 C          62.9674   87.2549   12.5070 C.ar    1  UNL1        0.0328
     11 C          58.6153   87.5267    7.0466 C.3     1  UNL1        0.0897
     12 N          59.5894   87.7222    8.1704 N.3     1  UNL1       -0.2686
     13 C          59.9530   89.1078    8.6152 C.3     1  UNL1        0.0938
     14 C          60.9272   89.3033    9.7390 C.3     1  UNL1        0.1082
     15 N          61.5377   88.1133   10.4180 N.pl3   1  UNL1       -0.3034
     16 C          61.1741   86.7276    9.9731 C.3     1  UNL1        0.1082
     17 C          60.2000   86.5321    8.8493 C.3     1  UNL1        0.0938
     18 S          64.9562   90.3393   13.7705 S.O2    1  UNL1        0.0860
     19 O          65.0555   91.1236   12.4958 O.2     1  UNL1       -0.1476
     20 O          64.8568   89.5550   15.0453 O.2     1  UNL1       -0.1476
     21 C          65.8293   91.3466   14.4584 C.ar    1  UNL1        0.1278
     22 C          67.1316   91.7582   13.8384 C.ar    1  UNL1        0.0227
     23 C          68.0046   92.7654   14.5262 C.ar    1  UNL1        0.0310
     24 C          67.5753   93.3611   15.8343 C.ar    1  UNL1        0.1402
     25 F          68.4484   94.3683   16.5221 F       1  UNL1       -0.2042
     26 C          66.2730   92.9495   16.4543 C.ar    1  UNL1        0.0310
     27 C          65.3999   91.9422   15.7664 C.ar    1  UNL1        0.0227
@<TRIPOS>BOND
     1    11    12    1
     2    12    13    1
     3    13    14    1
     4    14    15    1
     5    15     1    1
     6     1     2   ar
     7     2     3   ar
     8     3    18    1
     9    18    19    2
    10    18    20    2
    11    18    21    1
    12    21    22   ar
    13    22    23   ar
    14    23    24   ar
    15    24    25    1
    16    24    26   ar
    17    26    27   ar
    18     3     4   ar
    19     4     5   ar
    20     5     6   ar
    21     6     7   ar
    22     7     8    1
    23     7     9   ar
    24     9    10   ar
    25    15    16    1
    26    16    17    1
    27    17    12    1
    28    10     1   ar
    29    27    21   ar
    30    10     4   ar
@<TRIPOS>MOLECULE
*****
 27 30 0 0 0
SMALL
GASTEIGER

@<TRIPOS>ATOM
      1 C          62.6320   85.9027   10.7749 C.ar    1  UNL1        0.0686
      2 C          62.9069   87.2869   11.2833 C.ar    1  UNL1        0.1144
      3 N          63.2477   87.1862   12.7406 N.ar    1  UNL1       -0.2064
      4 C          63.1834   85.7398   13.1329 C.ar    1  UNL1        0.0838
      5 C          63.4223   85.0426   14.4393 C.ar    1  UNL1        0.0195
      6 C          63.2805   83.5522   14.5309 C.ar    1  UNL1        0.0082
      7 C          62.8999   82.7589   13.3160 C.ar    1  UNL1        0.0347
      8 BR         62.7582   81.2684   13.4076 Br      1  UNL1       -0.0490
      9 C          62.6611   83.4561   12.0096 C.ar    1  UNL1        0.0095
     10 C          62.8029   84.9466   11.9180 C.ar    1  UNL1        0.0328
     11 C          61.1149   84.4461    5.1555 C.3     1  UNL1        0.0897
     12 N          61.4942   84.8102    6.5604 N.3     1  UNL1       -0.2686
     13 C          60.5233   85.5511    7.4313 C.3     1  UNL1        0.0938
     14 C          60.9026   85.9153    8.8361 C.3     1  UNL1        0.1082
     15 N          62.2527   85.5386    9.3701 N.pl3   1  UNL1       -0.3034
     16 C          63.2237   84.7977    8.4992 C.3     1  UNL1        0.1082
     17 C          62.8444   84.4335    7.0943 C.3     1  UNL1        0.0938
     18 S          63.5924   88.3309   13.6466 S.O2    1  UNL1        0.0860
     19 O          62.7889   89.2568   12.7824 O.2     1  UNL1       -0.1476
     20 O          64.3959   87.4050   14.5108 O.2     1  UNL1       -0.1476
     21 C          63.9371   89.4756   14.5527 C.ar    1  UNL1        0.1278
     22 C          64.9736   90.4765   14.1357 C.ar    1  UNL1        0.0227
     23 C          65.3182   91.6210   15.0418 C.ar    1  UNL1        0.0310
     24 C          64.6263   91.7649   16.3649 C.ar    1  UNL1        0.1402
     25 F          64.9710   92.9095   17.2709 F       1  UNL1       -0.2042
     26 C          63.5898   90.7640   16.7819 C.ar    1  UNL1        0.0310
     27 C          63.2452   89.6194   15.8758 C.ar    1  UNL1        0.0227
@<TRIPOS>BOND
     1    11    12    1
     2    12    13    1
     3    13    14    1
     4    14    15    1
     5    15     1    1
     6     1     2   ar
     7     2     3   ar
     8     3    18    1
     9    18    19    2
    10    18    20    2
    11    18    21    1
    12    21    22   ar
    13    22    23   ar
    14    23    24   ar
    15    24    25    1
    16    24    26   ar
    17    26    27   ar
    18     3     4   ar
    19     4     5   ar
    20     5     6   ar
    21     6     7   ar
    22     7     8    1
    23     7     9   ar
    24     9    10   ar
    25    15    16    1
    26    16    17    1
    27    17    12    1
    28    10     1   ar
    29    27    21   ar
    30    10     4   ar
@<TRIPOS>MOLECULE
*****
 27 30 0 0 0
SMALL
GASTEIGER

@<TRIPOS>ATOM
      1 C          62.4971   94.1063   -3.4388 C.ar    1  UNL1        0.0686
      2 C          61.0388   94.3238   -3.7146 C.ar    1  UNL1        0.1144
      3 N          60.3251   94.4044   -2.3978 N.ar    1  UNL1       -0.2064
      4 C          61.3422   94.2368   -1.3082 C.ar    1  UNL1        0.0838
      5 C          61.2194   94.2281    0.1868 C.ar    1  UNL1        0.0195
      6 C          62.4390   94.0352    1.0383 C.ar    1  UNL1        0.0082
      7 C          63.7815   93.8509    0.3949 C.ar    1  UNL1        0.0347
      8 BR         65.0012   93.6580    1.2466 Br      1  UNL1       -0.0490
      9 C          63.9043   93.8596   -1.1000 C.ar    1  UNL1        0.0095
     10 C          62.6846   94.0526   -1.9515 C.ar    1  UNL1        0.0328
     11 C          66.8214   93.5492   -7.5608 C.3     1  UNL1        0.0897
     12 N          65.7403   93.6884   -6.5303 N.3     1  UNL1       -0.2686
     13 C          65.3971   95.0416   -5.9816 C.3     1  UNL1        0.0938
     14 C          64.3160   95.1809   -4.9511 C.3     1  UNL1        0.1082
     15 N          63.5782   93.9671   -4.4693 N.pl3   1  UNL1       -0.3034
     16 C          63.9215   92.6138   -5.0180 C.3     1  UNL1        0.1082
     17 C          65.0025   92.4745   -6.0485 C.3     1  UNL1        0.0938
     18 S          58.8526   94.6156   -2.2046 S.O2    1  UNL1        0.0860
     19 O          59.0814   96.0923   -2.0746 O.2     1  UNL1       -0.1476
     20 O          58.6237   93.1389   -2.3345 O.2     1  UNL1       -0.1476
     21 C          57.3801   94.8268   -2.0113 C.ar    1  UNL1        0.1278
     22 C          56.8515   96.1991   -1.7160 C.ar    1  UNL1        0.0227
     23 C          55.3792   96.4101   -1.5227 C.ar    1  UNL1        0.0310
     24 C          54.4352   95.2488   -1.6249 C.ar    1  UNL1        0.1402
     25 F          52.9628   95.4599   -1.4316 F       1  UNL1       -0.2042
     26 C          54.9638   93.8765   -1.9202 C.ar    1  UNL1        0.0310
     27 C          56.4363   93.6654   -2.1135 C.ar    1  UNL1        0.0227
@<TRIPOS>BOND
     1    11    12    1
     2    12    13    1
     3    13    14    1
     4    14    15    1
     5    15     1    1
     6     1     2   ar
     7     2     3   ar
     8     3    18    1
     9    18    19    2
    10    18    20    2
    11    18    21    1
    12    21    22   ar
    13    22    23   ar
    14    23    24   ar
    15    24    25    1
    16    24    26   ar
    17    26    27   ar
    18     3     4   ar
    19     4     5   ar
    20     5     6   ar
    21     6     7   ar
    22     7     8    1
    23     7     9   ar
    24     9    10   ar
    25    15    16    1
    26    16    17    1
    27    17    12    1
    28    10     1   ar
    29    27    21   ar
    30    10     4   ar
@<TRIPOS>MOLECULE
*****
 27 30 0 0 0
SMALL
GASTEIGER

@<TRIPOS>ATOM
      1 C          60.8307   93.9943   -3.2562 C.ar    1  UNL1        0.0686
      2 C          59.5109   94.4922   -3.7664 C.ar    1  UNL1        0.1144
      3 N          58.5342   94.4658   -2.6283 N.ar    1  UNL1       -0.2064
      4 C          59.2503   93.9517   -1.4147 C.ar    1  UNL1        0.0838
      5 C          58.7933   93.7112   -0.0064 C.ar    1  UNL1        0.0195
      6 C          59.7557   93.1793    1.0138 C.ar    1  UNL1        0.0082
      7 C          61.1750   92.8879    0.6257 C.ar    1  UNL1        0.0347
      8 BR         62.1374   92.3560    1.6461 Br      1  UNL1       -0.0490
      9 C          61.6320   93.1284   -0.7825 C.ar    1  UNL1        0.0095
     10 C          60.6696   93.6603   -1.8028 C.ar    1  UNL1        0.0328
     11 C          65.8695   93.4369   -6.4656 C.3     1  UNL1        0.0897
     12 N          64.6098   93.5763   -5.6633 N.3     1  UNL1       -0.2686
     13 C          64.4072   92.7409   -4.4340 C.3     1  UNL1        0.0938
     14 C          63.1475   92.8803   -3.6317 C.3     1  UNL1        0.1082
     15 N          62.0904   93.8550   -4.0585 N.pl3   1  UNL1       -0.3034
     16 C          62.2929   94.6904   -5.2879 C.3     1  UNL1        0.1082
     17 C          63.5526   94.5510   -6.0902 C.3     1  UNL1        0.0938
     18 S          57.0942   94.8808   -2.6925 S.O2    1  UNL1        0.0860
     19 O          56.6983   93.4627   -2.9787 O.2     1  UNL1       -0.1476
     20 O          57.4901   96.2990   -2.4063 O.2     1  UNL1       -0.1476
     21 C          55.6541   95.2958   -2.7567 C.ar    1  UNL1        0.1278
     22 C          55.0452   95.6909   -4.0693 C.ar    1  UNL1        0.0227
     23 C          53.6052   96.1059   -4.1334 C.ar    1  UNL1        0.0310
     24 C          52.7741   96.1259   -2.8848 C.ar    1  UNL1        0.1402
     25 F          51.3341   96.5409   -2.9490 F       1  UNL1       -0.2042
     26 C          53.3830   95.7308   -1.5722 C.ar    1  UNL1        0.0310
     27 C          54.8231   95.3158   -1.5081 C.ar    1  UNL1        0.0227
@<TRIPOS>BOND
     1    11    12    1
     2    12    13    1
     3    13    14    1
     4    14    15    1
     5    15     1    1
     6     1     2   ar
     7     2     3   ar
     8     3    18    1
     9    18    19    2
    10    18    20    2
    11    18    21    1
    12    21    22   ar
    13    22    23   ar
    14    23    24   ar
    15    24    25    1
    16    24    26   ar
    17    26    27   ar
    18     3     4   ar
    19     4     5   ar
    20     5     6   ar
    21     6     7   ar
    22     7     8    1
    23     7     9   ar
    24     9    10   ar
    25    15    16    1
    26    16    17    1
    27    17    12    1
    28    10     1   ar
    29    27    21   ar
    30    10     4   ar
@<TRIPOS>MOLECULE
*****
 27 30 0 0 0
SMALL
GASTEIGER

@<TRIPOS>ATOM
      1 C          59.5287   94.2691   -1.6341 C.ar    1  UNL1        0.0686
      2 C          58.0707   94.5294   -1.3966 C.ar    1  UNL1        0.1144
      3 N          57.4418   94.8788   -2.7128 N.ar    1  UNL1       -0.2064
      4 C          58.5112   94.8344   -3.7638 C.ar    1  UNL1        0.0838
      5 C          58.4771   95.0884   -5.2417 C.ar    1  UNL1        0.0195
      6 C          59.7328   94.9656   -6.0529 C.ar    1  UNL1        0.0082
      7 C          61.0226   94.5888   -5.3862 C.ar    1  UNL1        0.0347
      8 BR         62.2783   94.4661   -6.1975 Br      1  UNL1       -0.0490
      9 C          61.0567   94.3348   -3.9083 C.ar    1  UNL1        0.0095
     10 C          59.8009   94.4576   -3.0971 C.ar    1  UNL1        0.0328
     11 C          63.5635   92.7419    2.5358 C.3     1  UNL1        0.0897
     12 N          62.5548   93.1237    1.4934 N.3     1  UNL1       -0.2686
     13 C          62.4692   94.5434    1.0169 C.3     1  UNL1        0.0938
     14 C          61.4605   94.9252   -0.0255 C.3     1  UNL1        0.1082
     15 N          60.5374   93.8873   -0.5916 N.pl3   1  UNL1       -0.3034
     16 C          60.6230   92.4675   -0.1152 C.3     1  UNL1        0.1082
     17 C          61.6317   92.0857    0.9273 C.3     1  UNL1        0.0938
     18 S          55.9972   95.2137   -2.9385 S.O2    1  UNL1        0.0860
     19 O          56.3420   96.6729   -2.9799 O.2     1  UNL1       -0.1476
     20 O          55.6524   93.7545   -2.8971 O.2     1  UNL1       -0.1476
     21 C          54.5525   95.5486   -3.1642 C.ar    1  UNL1        0.1278
     22 C          53.5829   95.4960   -2.0210 C.ar    1  UNL1        0.0227
     23 C          52.1384   95.8309   -2.2467 C.ar    1  UNL1        0.0310
     24 C          51.6633   96.2183   -3.6158 C.ar    1  UNL1        0.1402
     25 F          50.2188   96.5531   -3.8415 F       1  UNL1       -0.2042
     26 C          52.6329   96.2708   -4.7591 C.ar    1  UNL1        0.0310
     27 C          54.0776   95.9360   -4.5333 C.ar    1  UNL1        0.0227
@<TRIPOS>BOND
     1    11    12    1
     2    12    13    1
     3    13    14    1
     4    14    15    1
     5    15     1    1
     6     1     2   ar
     7     2     3   ar
     8     3    18    1
     9    18    19    2
    10    18    20    2
    11    18    21    1
    12    21    22   ar
    13    22    23   ar
    14    23    24   ar
    15    24    25    1
    16    24    26   ar
    17    26    27   ar
    18     3     4   ar
    19     4     5   ar
    20     5     6   ar
    21     6     7   ar
    22     7     8    1
    23     7     9   ar
    24     9    10   ar
    25    15    16    1
    26    16    17    1
    27    17    12    1
    28    10     1   ar
    29    27    21   ar
    30    10     4   ar
