@<TRIPOS>MOLECULE
*****
 31 34 0 0 0
SMALL
GASTEIGER

@<TRIPOS>ATOM
      1 C          64.2660   90.0735   13.6450 C.ar    1  UNL1        0.0577
      2 C          65.5002   90.6376   14.2843 C.ar    1  UNL1        0.0462
      3 C          66.2235   91.7818   13.6380 C.ar    1  UNL1        0.1602
      4 F          67.4577   92.3458   14.2773 F       1  UNL1       -0.2027
      5 C          65.7127   92.3619   12.3525 C.ar    1  UNL1        0.1534
      6 C          64.4786   91.7978   11.7133 C.ar    1  UNL1        0.0351
      7 C          63.7552   90.6537   12.3595 C.ar    1  UNL1        0.0722
      8 CL         62.5210   90.0896   11.7202 Cl      1  UNL1       -0.0809
      9 S          66.4361   93.5061   11.7063 S.O2    1  UNL1        0.0772
     10 O          66.0784   94.3874   12.8662 O.2     1  UNL1       -0.1498
     11 O          66.7938   92.6249   10.5464 O.2     1  UNL1       -0.1498
     12 N          67.1594   94.6503   11.0601 N.pl3   1  UNL1       -0.1936
     13 H          68.0713   94.8827   11.3495 H       1  UNL1        0.1758
     14 C          66.4934   95.4405    9.9729 C.ar    1  UNL1        0.1786
     15 N          65.2230   96.2268   10.1062 N.ar    1  UNL1       -0.2214
     16 C          64.9253   96.8554    8.7772 C.ar    1  UNL1        0.1079
     17 C          66.0117   96.4576    7.8225 C.ar    1  UNL1        0.0588
     18 S          66.9808   95.5831    8.5615 S.2     1  UNL1       -0.0497
     19 N          63.5427   88.9293   14.2913 N.pl3   1  UNL1       -0.3309
     20 H          62.5721   88.9851   14.4463 H       1  UNL1        0.1469
     21 C          64.2982   87.7002   14.7016 C.3     1  UNL1        0.1018
     22 C          63.5490   83.0563   14.2822 C.3     1  UNL1        0.0014
     23 C          63.7686   84.5304   14.4515 C.3     1  UNL1        0.0160
     24 C          64.4253   84.4275   13.1069 C.3     1  UNL1        0.0014
     25 C          63.0659   84.3253   15.7608 C.3     1  UNL1        0.0720
     26 N          62.9885   85.6510   16.4581 N.3     1  UNL1       -0.2736
     27 C          62.5064   86.3435   17.6983 C.3     1  UNL1        0.0721
     28 C          62.8633   87.7962   17.5864 C.3     1  UNL1        0.0187
     29 C          63.5660   88.0014   16.2772 C.3     1  UNL1        0.0178
     30 C          63.6434   86.6756   15.5798 C.3     1  UNL1        0.0634
     31 C          64.1255   85.9831   14.3397 C.3     1  UNL1        0.0177
@<TRIPOS>BOND
     1    22    23    1
     2    23    24    1
     3    23    25    1
     4    25    26    1
     5    26    27    1
     6    27    28    1
     7    28    29    1
     8    29    30    1
     9    30    21    1
    10    21    19    1
    11    19     1    1
    12     1     2   ar
    13     2     3   ar
    14     3     4    1
    15     3     5   ar
    16     5     9    1
    17     9    10    2
    18     9    11    2
    19     9    12    1
    20    12    14    1
    21    14    15   ar
    22    15    16   ar
    23    16    17   ar
    24    17    18   ar
    25     5     6   ar
    26     6     7   ar
    27     7     8    1
    28    30    31    1
    29    31    23    1
    30    30    26    1
    31     7     1   ar
    32    18    14   ar
    33    19    20    1
    34    12    13    1
@<TRIPOS>MOLECULE
*****
 31 34 0 0 0
SMALL
GASTEIGER

@<TRIPOS>ATOM
      1 C          61.8718   88.5029   11.1802 C.ar    1  UNL1        0.0577
      2 C          62.8495   88.4225   12.3150 C.ar    1  UNL1        0.0462
      3 C          63.7499   89.5847   12.6130 C.ar    1  UNL1        0.1602
      4 F          64.7275   89.5043   13.7477 F       1  UNL1       -0.2027
      5 C          63.6726   90.8271   11.7762 C.ar    1  UNL1        0.1534
      6 C          62.6950   90.9075   10.6414 C.ar    1  UNL1        0.0351
      7 C          61.7946   89.7454   10.3434 C.ar    1  UNL1        0.0722
      8 CL         60.8169   89.8257    9.2087 Cl      1  UNL1       -0.0809
      9 S          64.5730   91.9893   12.0741 S.O2    1  UNL1        0.0772
     10 O          64.1213   91.9725   13.5044 O.2     1  UNL1       -0.1498
     11 O          65.0247   92.0060   10.6440 O.2     1  UNL1       -0.1498
     12 N          65.4734   93.1514   12.3722 N.pl3   1  UNL1       -0.1936
     13 H          65.3961   93.9812   11.8480 H       1  UNL1        0.1758
     14 C          66.4916   93.0492   13.4689 C.ar    1  UNL1        0.1786
     15 N          66.6240   93.9790   14.6385 N.ar    1  UNL1       -0.2214
     16 C          67.7703   93.5037   15.4811 C.ar    1  UNL1        0.1079
     17 C          68.3465   92.2802   14.8322 C.ar    1  UNL1        0.0588
     18 S          67.5562   91.9993   13.5886 S.2     1  UNL1       -0.0497
     19 N          60.9715   87.3407   10.8824 N.pl3   1  UNL1       -0.3309
     20 H          60.0977   87.4919   10.4546 H       1  UNL1        0.1469
     21 C          61.4023   85.9482   11.2362 C.3     1  UNL1        0.1018
     22 C          64.6759   82.6089   11.8966 C.3     1  UNL1        0.0014
     23 C          63.6433   83.6678   11.6470 C.3     1  UNL1        0.0160
     24 C          63.4760   83.6339   13.1372 C.3     1  UNL1        0.0014
     25 C          64.0264   83.4804   10.2089 C.3     1  UNL1        0.0720
     26 N          63.1956   84.4164    9.3820 N.3     1  UNL1       -0.2736
     27 C          62.9189   84.8789    7.9822 C.3     1  UNL1        0.0721
     28 C          61.8513   85.9308    8.0442 C.3     1  UNL1        0.0187
     29 C          61.4681   86.1182    9.4822 C.3     1  UNL1        0.0178
     30 C          62.2989   85.1823   10.3091 C.3     1  UNL1        0.0634
     31 C          62.5756   84.7197   11.7089 C.3     1  UNL1        0.0177
@<TRIPOS>BOND
     1    22    23    1
     2    23    24    1
     3    23    25    1
     4    25    26    1
     5    26    27    1
     6    27    28    1
     7    28    29    1
     8    29    30    1
     9    30    21    1
    10    21    19    1
    11    19     1    1
    12     1     2   ar
    13     2     3   ar
    14     3     4    1
    15     3     5   ar
    16     5     9    1
    17     9    10    2
    18     9    11    2
    19     9    12    1
    20    12    14    1
    21    14    15   ar
    22    15    16   ar
    23    16    17   ar
    24    17    18   ar
    25     5     6   ar
    26     6     7   ar
    27     7     8    1
    28    30    31    1
    29    31    23    1
    30    30    26    1
    31     7     1   ar
    32    18    14   ar
    33    19    20    1
    34    12    13    1
@<TRIPOS>MOLECULE
*****
 31 34 0 0 0
SMALL
GASTEIGER

@<TRIPOS>ATOM
      1 C          62.0421   88.6118   11.3941 C.ar    1  UNL1        0.0577
      2 C          63.0055   88.5589   12.5426 C.ar    1  UNL1        0.0462
      3 C          63.9335   89.7097   12.7968 C.ar    1  UNL1        0.1602
      4 F          64.8969   89.6567   13.9452 F       1  UNL1       -0.2027
      5 C          63.8980   90.9134   11.9025 C.ar    1  UNL1        0.1534
      6 C          62.9346   90.9663   10.7540 C.ar    1  UNL1        0.0351
      7 C          62.0066   89.8155   10.4998 C.ar    1  UNL1        0.0722
      8 CL         61.0432   89.8685    9.3513 Cl      1  UNL1       -0.0809
      9 S          64.8260   92.0642   12.1566 S.O2    1  UNL1        0.0772
     10 O          65.2510   92.0391   10.7183 O.2     1  UNL1       -0.1498
     11 O          64.4009   92.0893   13.5948 O.2     1  UNL1       -0.1498
     12 N          65.7540   93.2150   12.4107 N.pl3   1  UNL1       -0.1936
     13 H          65.9799   93.4705   13.3342 H       1  UNL1        0.1758
     14 C          66.3376   93.9764   11.2577 C.ar    1  UNL1        0.1786
     15 N          67.5411   93.5773   10.4563 N.ar    1  UNL1       -0.2214
     16 C          67.7676   94.6249    9.4069 C.ar    1  UNL1        0.1079
     17 C          66.7040   95.6715    9.5597 C.ar    1  UNL1        0.0588
     18 S          65.8202   95.2707   10.7035 S.2     1  UNL1       -0.0497
     19 N          61.1142   87.4610   11.1400 N.pl3   1  UNL1       -0.3309
     20 H          60.2255   87.6224   10.7481 H       1  UNL1        0.1469
     21 C          61.5401   86.0642   11.4829 C.3     1  UNL1        0.1018
     22 C          64.6673   82.5575   11.9595 C.3     1  UNL1        0.0014
     23 C          63.6794   83.6699   11.7680 C.3     1  UNL1        0.0160
     24 C          63.5737   83.6220   13.2634 C.3     1  UNL1        0.0014
     25 C          63.9916   83.4852   10.3124 C.3     1  UNL1        0.0720
     26 N          63.1745   84.4734    9.5341 N.3     1  UNL1       -0.2736
     27 C          62.8626   84.9700    8.1535 C.3     1  UNL1        0.0721
     28 C          61.8525   86.0723    8.2747 C.3     1  UNL1        0.0187
     29 C          61.5403   86.2570    9.7301 C.3     1  UNL1        0.0178
     30 C          62.3573   85.2688   10.5085 C.3     1  UNL1        0.0634
     31 C          62.6693   84.7723   11.8891 C.3     1  UNL1        0.0177
@<TRIPOS>BOND
     1    22    23    1
     2    23    24    1
     3    23    25    1
     4    25    26    1
     5    26    27    1
     6    27    28    1
     7    28    29    1
     8    29    30    1
     9    30    21    1
    10    21    19    1
    11    19     1    1
    12     1     2   ar
    13     2     3   ar
    14     3     4    1
    15     3     5   ar
    16     5     9    1
    17     9    10    2
    18     9    11    2
    19     9    12    1
    20    12    14    1
    21    14    15   ar
    22    15    16   ar
    23    16    17   ar
    24    17    18   ar
    25     5     6   ar
    26     6     7   ar
    27     7     8    1
    28    30    31    1
    29    31    23    1
    30    30    26    1
    31     7     1   ar
    32    18    14   ar
    33    19    20    1
    34    12    13    1
@<TRIPOS>MOLECULE
*****
 31 34 0 0 0
SMALL
GASTEIGER

@<TRIPOS>ATOM
      1 C          62.1564   88.3568   11.4089 C.ar    1  UNL1        0.0577
      2 C          63.0970   88.3333   12.5771 C.ar    1  UNL1        0.0462
      3 C          63.9447   89.5327   12.8818 C.ar    1  UNL1        0.1602
      4 F          64.8852   89.5092   14.0500 F       1  UNL1       -0.2027
      5 C          63.8518   90.7557   12.0182 C.ar    1  UNL1        0.1534
      6 C          62.9113   90.7792   10.8500 C.ar    1  UNL1        0.0351
      7 C          62.0636   89.5798   10.5453 C.ar    1  UNL1        0.0722
      8 CL         61.1230   89.6033    9.3770 Cl      1  UNL1       -0.0809
      9 S          64.6995   91.9551   12.3229 S.O2    1  UNL1        0.0772
     10 O          64.2322   91.9234   13.7479 O.2     1  UNL1       -0.1498
     11 O          65.1668   91.9868   10.8980 O.2     1  UNL1       -0.1498
     12 N          65.5472   93.1546   12.6276 N.pl3   1  UNL1       -0.1936
     13 H          65.3805   94.0062   12.1626 H       1  UNL1        0.1758
     14 C          66.6488   93.0564   13.6409 C.ar    1  UNL1        0.1786
     15 N          66.8738   93.9914   14.7921 N.ar    1  UNL1       -0.2214
     16 C          68.0829   93.5189   15.5435 C.ar    1  UNL1        0.1079
     17 C          68.6052   92.2919   14.8568 C.ar    1  UNL1        0.0588
     18 S          67.7189   92.0060   13.6809 S.2     1  UNL1       -0.0497
     19 N          61.3088   87.1573   11.1042 N.pl3   1  UNL1       -0.3309
     20 H          60.5179   87.2477   10.5249 H       1  UNL1        0.1469
     21 C          61.6660   85.8202   11.6823 C.3     1  UNL1        0.1018
     22 C          62.5432   84.9683    7.1207 C.3     1  UNL1        0.0014
     23 C          62.2937   85.2125    8.5795 C.3     1  UNL1        0.0160
     24 C          61.2454   86.1621    8.0801 C.3     1  UNL1        0.0014
     25 C          63.3941   84.2118    8.7740 C.3     1  UNL1        0.0720
     26 N          63.6055   84.0361   10.2486 N.3     1  UNL1       -0.2736
     27 C          64.4163   83.3090   11.2801 C.3     1  UNL1        0.0721
     28 C          63.9477   83.7517   12.6345 C.3     1  UNL1        0.0187
     29 C          62.8472   84.7524   12.4401 C.3     1  UNL1        0.0178
     30 C          62.6358   84.9281   10.9655 C.3     1  UNL1        0.0634
     31 C          61.8250   85.6552    9.9340 C.3     1  UNL1        0.0177
@<TRIPOS>BOND
     1    22    23    1
     2    23    24    1
     3    23    25    1
     4    25    26    1
     5    26    27    1
     6    27    28    1
     7    28    29    1
     8    29    30    1
     9    30    21    1
    10    21    19    1
    11    19     1    1
    12     1     2   ar
    13     2     3   ar
    14     3     4    1
    15     3     5   ar
    16     5     9    1
    17     9    10    2
    18     9    11    2
    19     9    12    1
    20    12    14    1
    21    14    15   ar
    22    15    16   ar
    23    16    17   ar
    24    17    18   ar
    25     5     6   ar
    26     6     7   ar
    27     7     8    1
    28    30    31    1
    29    31    23    1
    30    30    26    1
    31     7     1   ar
    32    18    14   ar
    33    19    20    1
    34    12    13    1
@<TRIPOS>MOLECULE
*****
 31 34 0 0 0
SMALL
GASTEIGER

@<TRIPOS>ATOM
      1 C          63.9952   88.4896   15.1224 C.ar    1  UNL1        0.0577
      2 C          64.2297   87.6085   13.9314 C.ar    1  UNL1        0.0462
      3 C          63.8988   86.1472   14.0027 C.ar    1  UNL1        0.1602
      4 F          64.1333   85.2661   12.8116 F       1  UNL1       -0.2027
      5 C          63.3334   85.5670   15.2651 C.ar    1  UNL1        0.1534
      6 C          63.0988   86.4481   16.4561 C.ar    1  UNL1        0.0351
      7 C          63.4297   87.9094   16.3848 C.ar    1  UNL1        0.0722
      8 CL         63.1952   88.7905   17.5759 Cl      1  UNL1       -0.0809
      9 S          63.0025   84.1057   15.3364 S.O2    1  UNL1        0.0772
     10 O          64.4652   83.7768   15.3847 O.2     1  UNL1       -0.1498
     11 O          61.5398   84.4345   15.2880 O.2     1  UNL1       -0.1498
     12 N          62.6716   82.6443   15.4077 N.pl3   1  UNL1       -0.1936
     13 H          62.4483   82.2318   16.2732 H       1  UNL1        0.1758
     14 C          62.6812   81.8115   14.1602 C.ar    1  UNL1        0.1786
     15 N          62.6219   80.3139   14.0993 N.ar    1  UNL1       -0.2214
     16 C          62.6558   79.9069   12.6560 C.ar    1  UNL1        0.1079
     17 C          62.7360   81.1530   11.8248 C.ar    1  UNL1        0.0588
     18 S          62.7517   82.3301   12.7544 S.2     1  UNL1       -0.0497
     19 N          64.3261   89.9509   15.0510 N.pl3   1  UNL1       -0.3309
     20 H          64.9272   90.3528   15.7192 H       1  UNL1        0.1469
     21 C          63.7413   90.8000   13.9616 C.3     1  UNL1        0.1018
     22 C          67.4509   93.5732   14.8845 C.3     1  UNL1        0.0014
     23 C          66.2763   92.7016   14.5520 C.3     1  UNL1        0.0160
     24 C          66.2507   92.4425   16.0293 C.3     1  UNL1        0.0014
     25 C          66.5474   93.1428   13.1442 C.3     1  UNL1        0.0720
     26 N          65.5350   92.4898   12.2506 N.3     1  UNL1       -0.2736
     27 C          65.0769   92.3589   10.8283 C.3     1  UNL1        0.0721
     28 C          63.8969   91.4332   10.8047 C.3     1  UNL1        0.0187
     29 C          63.6257   90.9919   12.2125 C.3     1  UNL1        0.0178
     30 C          64.6381   91.6449   13.1061 C.3     1  UNL1        0.0634
     31 C          65.0962   91.7758   14.5284 C.3     1  UNL1        0.0177
@<TRIPOS>BOND
     1    22    23    1
     2    23    24    1
     3    23    25    1
     4    25    26    1
     5    26    27    1
     6    27    28    1
     7    28    29    1
     8    29    30    1
     9    30    21    1
    10    21    19    1
    11    19     1    1
    12     1     2   ar
    13     2     3   ar
    14     3     4    1
    15     3     5   ar
    16     5     9    1
    17     9    10    2
    18     9    11    2
    19     9    12    1
    20    12    14    1
    21    14    15   ar
    22    15    16   ar
    23    16    17   ar
    24    17    18   ar
    25     5     6   ar
    26     6     7   ar
    27     7     8    1
    28    30    31    1
    29    31    23    1
    30    30    26    1
    31     7     1   ar
    32    18    14   ar
    33    19    20    1
    34    12    13    1
@<TRIPOS>MOLECULE
*****
 31 34 0 0 0
SMALL
GASTEIGER

@<TRIPOS>ATOM
      1 C          64.8137   91.7291   12.2890 C.ar    1  UNL1        0.0577
      2 C          64.1479   91.7019   10.9452 C.ar    1  UNL1        0.0462
      3 C          63.0284   90.7388   10.6822 C.ar    1  UNL1        0.1602
      4 F          62.3625   90.7115    9.3384 F       1  UNL1       -0.2027
      5 C          62.5748   89.8029   11.7631 C.ar    1  UNL1        0.1534
      6 C          63.2406   89.8301   13.1069 C.ar    1  UNL1        0.0351
      7 C          64.3601   90.7932   13.3698 C.ar    1  UNL1        0.0722
      8 CL         65.0260   90.8204   14.7136 Cl      1  UNL1       -0.0809
      9 S          61.4553   88.8397   11.5001 S.O2    1  UNL1        0.0772
     10 O          62.4258   87.6973   11.5525 O.2     1  UNL1       -0.1498
     11 O          60.4847   89.9821   11.4478 O.2     1  UNL1       -0.1498
     12 N          60.3358   87.8765   11.2372 N.pl3   1  UNL1       -0.1936
     13 H          59.7391   87.6031   11.9710 H       1  UNL1        0.1758
     14 C          60.1256   87.3300    9.8562 C.ar    1  UNL1        0.1786
     15 N          60.7914   86.1170    9.2772 N.ar    1  UNL1       -0.2214
     16 C          60.2899   85.9378    7.8749 C.ar    1  UNL1        0.1079
     17 C          59.3141   87.0401    7.5873 C.ar    1  UNL1        0.0588
     18 S          59.2125   87.9005    8.8118 S.2     1  UNL1       -0.0497
     19 N          65.9333   92.6923   12.5518 N.pl3   1  UNL1       -0.3309
     20 H          66.6050   92.4897   13.2424 H       1  UNL1        0.1469
     21 C          66.0293   93.9641   11.7625 C.3     1  UNL1        0.1018
     22 C          65.9809   96.8544    8.0279 C.3     1  UNL1        0.0014
     23 C          66.0245   95.9140    9.1956 C.3     1  UNL1        0.0160
     24 C          64.9804   96.8263    9.7679 C.3     1  UNL1        0.0014
     25 C          67.0595   95.1982    8.3791 C.3     1  UNL1        0.0720
     26 N          67.5245   94.0061    9.1619 N.3     1  UNL1       -0.2736
     27 C          68.4515   92.8271    9.1411 C.3     1  UNL1        0.0721
     28 C          68.2768   92.0774   10.4285 C.3     1  UNL1        0.0187
     29 C          67.2418   92.7931   11.2450 C.3     1  UNL1        0.0178
     30 C          66.7769   93.9851   10.4622 C.3     1  UNL1        0.0634
     31 C          65.8498   95.1642   10.4831 C.3     1  UNL1        0.0177
@<TRIPOS>BOND
     1    22    23    1
     2    23    24    1
     3    23    25    1
     4    25    26    1
     5    26    27    1
     6    27    28    1
     7    28    29    1
     8    29    30    1
     9    30    21    1
    10    21    19    1
    11    19     1    1
    12     1     2   ar
    13     2     3   ar
    14     3     4    1
    15     3     5   ar
    16     5     9    1
    17     9    10    2
    18     9    11    2
    19     9    12    1
    20    12    14    1
    21    14    15   ar
    22    15    16   ar
    23    16    17   ar
    24    17    18   ar
    25     5     6   ar
    26     6     7   ar
    27     7     8    1
    28    30    31    1
    29    31    23    1
    30    30    26    1
    31     7     1   ar
    32    18    14   ar
    33    19    20    1
    34    12    13    1
@<TRIPOS>MOLECULE
*****
 31 34 0 0 0
SMALL
GASTEIGER

@<TRIPOS>ATOM
      1 C          65.1618   92.1086   12.2449 C.ar    1  UNL1        0.0577
      2 C          64.5058   91.9999   10.9003 C.ar    1  UNL1        0.0462
      3 C          63.3654   91.0469   10.6970 C.ar    1  UNL1        0.1602
      4 F          62.7094   90.9382    9.3525 F       1  UNL1       -0.2027
      5 C          62.8810   90.2026   11.8383 C.ar    1  UNL1        0.1534
      6 C          63.5370   90.3113   13.1828 C.ar    1  UNL1        0.0351
      7 C          64.6774   91.2643   13.3861 C.ar    1  UNL1        0.0722
      8 CL         65.3334   91.3729   14.7307 Cl      1  UNL1       -0.0809
      9 S          61.7406   89.2496   11.6350 S.O2    1  UNL1        0.0772
     10 O          62.6721   88.0916   11.8381 O.2     1  UNL1       -0.1498
     11 O          60.8091   90.4076   11.4319 O.2     1  UNL1       -0.1498
     12 N          60.6002   88.2966   11.4317 N.pl3   1  UNL1       -0.1936
     13 H          60.0298   88.0419   12.1926 H       1  UNL1        0.1758
     14 C          60.3290   87.7315   10.0689 C.ar    1  UNL1        0.1786
     15 N          59.5127   88.3814    8.9914 N.ar    1  UNL1       -0.2214
     16 C          59.5056   87.4689    7.8010 C.ar    1  UNL1        0.1079
     17 C          60.3176   86.2549    8.1428 C.ar    1  UNL1        0.0588
     18 S          60.8264   86.4171    9.5444 S.2     1  UNL1       -0.0497
     19 N          66.3022   93.0616   12.4481 N.pl3   1  UNL1       -0.3309
     20 H          67.1202   92.7601   12.9056 H       1  UNL1        0.1469
     21 C          66.1964   94.4740   11.9543 C.3     1  UNL1        0.1018
     22 C          68.8362   92.3538    8.6620 C.3     1  UNL1        0.0014
     23 C          67.9887   93.0562    9.6809 C.3     1  UNL1        0.0160
     24 C          68.4013   91.9239   10.5739 C.3     1  UNL1        0.0014
     25 C          67.7532   94.0418    8.5749 C.3     1  UNL1        0.0720
     26 N          66.8464   95.1166    9.0969 N.3     1  UNL1       -0.2736
     27 C          66.1405   96.3899    8.7360 C.3     1  UNL1        0.0721
     28 C          65.3792   96.8556    9.9416 C.3     1  UNL1        0.0187
     29 C          65.6146   95.8701   11.0477 C.3     1  UNL1        0.0178
     30 C          66.5214   94.7953   10.5256 C.3     1  UNL1        0.0634
     31 C          67.2273   93.5220   10.8866 C.3     1  UNL1        0.0177
@<TRIPOS>BOND
     1    22    23    1
     2    23    24    1
     3    23    25    1
     4    25    26    1
     5    26    27    1
     6    27    28    1
     7    28    29    1
     8    29    30    1
     9    30    21    1
    10    21    19    1
    11    19     1    1
    12     1     2   ar
    13     2     3   ar
    14     3     4    1
    15     3     5   ar
    16     5     9    1
    17     9    10    2
    18     9    11    2
    19     9    12    1
    20    12    14    1
    21    14    15   ar
    22    15    16   ar
    23    16    17   ar
    24    17    18   ar
    25     5     6   ar
    26     6     7   ar
    27     7     8    1
    28    30    31    1
    29    31    23    1
    30    30    26    1
    31     7     1   ar
    32    18    14   ar
    33    19    20    1
    34    12    13    1
@<TRIPOS>MOLECULE
*****
 31 34 0 0 0
SMALL
GASTEIGER

@<TRIPOS>ATOM
      1 C          62.1169   88.4508   11.3788 C.ar    1  UNL1        0.0577
      2 C          63.0966   88.4972   12.5137 C.ar    1  UNL1        0.0462
      3 C          63.9382   89.7202   12.7285 C.ar    1  UNL1        0.1602
      4 F          64.9179   89.7666   13.8634 F       1  UNL1       -0.2027
      5 C          63.8001   90.8967   11.8084 C.ar    1  UNL1        0.1534
      6 C          62.8204   90.8503   10.6735 C.ar    1  UNL1        0.0351
      7 C          61.9788   89.6274   10.4587 C.ar    1  UNL1        0.0722
      8 CL         60.9991   89.5809    9.3238 Cl      1  UNL1       -0.0809
      9 S          64.6417   92.1197   12.0232 S.O2    1  UNL1        0.0772
     10 O          64.8710   92.2216   10.5443 O.2     1  UNL1       -0.1498
     11 O          64.4124   92.0178   13.5019 O.2     1  UNL1       -0.1498
     12 N          65.4833   93.3427   12.2379 N.pl3   1  UNL1       -0.1936
     13 H          65.4519   93.8167   13.1001 H       1  UNL1        0.1758
     14 C          66.3728   93.8433   11.1387 C.ar    1  UNL1        0.1786
     15 N          67.5115   93.0922   10.5149 N.ar    1  UNL1       -0.2214
     16 C          68.1222   93.9676    9.4610 C.ar    1  UNL1        0.1079
     17 C          67.3610   95.2598    9.4335 C.ar    1  UNL1        0.0588
     18 S          66.2798   95.1830   10.4704 S.2     1  UNL1       -0.0497
     19 N          61.2753   87.2278   11.1641 N.pl3   1  UNL1       -0.3309
     20 H          60.4619   87.2807   10.6121 H       1  UNL1        0.1469
     21 C          61.6732   85.9242   11.7905 C.3     1  UNL1        0.1018
     22 C          62.5121   84.9736    7.2412 C.3     1  UNL1        0.0014
     23 C          62.2748   85.2494    8.6964 C.3     1  UNL1        0.0160
     24 C          61.2228   86.1885    8.1853 C.3     1  UNL1        0.0014
     25 C          63.3764   84.2525    8.9034 C.3     1  UNL1        0.0720
     26 N          63.6000   84.1085   10.3796 N.3     1  UNL1       -0.2736
     27 C          64.4191   83.4035   11.4198 C.3     1  UNL1        0.0721
     28 C          63.9618   83.8756   12.7681 C.3     1  UNL1        0.0187
     29 C          62.8602   84.8724   12.5613 C.3     1  UNL1        0.0178
     30 C          62.6366   85.0164   11.0850 C.3     1  UNL1        0.0634
     31 C          61.8175   85.7214   10.0448 C.3     1  UNL1        0.0177
@<TRIPOS>BOND
     1    22    23    1
     2    23    24    1
     3    23    25    1
     4    25    26    1
     5    26    27    1
     6    27    28    1
     7    28    29    1
     8    29    30    1
     9    30    21    1
    10    21    19    1
    11    19     1    1
    12     1     2   ar
    13     2     3   ar
    14     3     4    1
    15     3     5   ar
    16     5     9    1
    17     9    10    2
    18     9    11    2
    19     9    12    1
    20    12    14    1
    21    14    15   ar
    22    15    16   ar
    23    16    17   ar
    24    17    18   ar
    25     5     6   ar
    26     6     7   ar
    27     7     8    1
    28    30    31    1
    29    31    23    1
    30    30    26    1
    31     7     1   ar
    32    18    14   ar
    33    19    20    1
    34    12    13    1
@<TRIPOS>MOLECULE
*****
 31 34 0 0 0
SMALL
GASTEIGER

@<TRIPOS>ATOM
      1 C          63.0564   88.6629   12.2983 C.ar    1  UNL1        0.0577
      2 C          62.7791   89.5791   11.1435 C.ar    1  UNL1        0.0462
      3 C          63.4551   90.9160   11.0676 C.ar    1  UNL1        0.1602
      4 F          63.1778   91.8322    9.9129 F       1  UNL1       -0.2027
      5 C          64.4085   91.3366   12.1466 C.ar    1  UNL1        0.1534
      6 C          64.6859   90.4204   13.3014 C.ar    1  UNL1        0.0351
      7 C          64.0098   89.0835   13.3772 C.ar    1  UNL1        0.0722
      8 CL         64.2872   88.1673   14.5320 Cl      1  UNL1       -0.0809
      9 S          65.0846   92.6735   12.0707 S.O2    1  UNL1        0.0772
     10 O          65.2116   92.6941   13.5652 O.2     1  UNL1       -0.1498
     11 O          64.9576   92.6529   10.5763 O.2     1  UNL1       -0.1498
     12 N          65.7606   94.0104   11.9949 N.pl3   1  UNL1       -0.1936
     13 H          65.6719   94.6498   12.7382 H       1  UNL1        0.1758
     14 C          66.5720   94.3730   10.7865 C.ar    1  UNL1        0.1786
     15 N          67.7069   93.5761   10.2148 N.ar    1  UNL1       -0.2214
     16 C          68.2271   94.3068    9.0126 C.ar    1  UNL1        0.1079
     17 C          67.4137   95.5554    8.8413 C.ar    1  UNL1        0.0588
     18 S          66.3908   95.5963    9.9375 S.2     1  UNL1       -0.0497
     19 N          62.3803   87.3260   12.3741 N.pl3   1  UNL1       -0.3309
     20 H          62.2835   86.8719   13.2422 H       1  UNL1        0.1469
     21 C          61.8517   86.6811   11.1273 C.3     1  UNL1        0.1018
     22 C          63.6068   82.7425   13.0536 C.3     1  UNL1        0.0014
     23 C          63.0606   83.9800   12.4052 C.3     1  UNL1        0.0160
     24 C          62.6955   84.3639   13.8085 C.3     1  UNL1        0.0014
     25 C          63.5399   83.3373   11.1374 C.3     1  UNL1        0.0720
     26 N          63.2137   84.2579    9.9989 N.3     1  UNL1       -0.2736
     27 C          63.3083   84.4296    8.5118 C.3     1  UNL1        0.0721
     28 C          62.6857   85.7473    8.1569 C.3     1  UNL1        0.0187
     29 C          62.2064   86.3900    9.4246 C.3     1  UNL1        0.0178
     30 C          62.5327   85.4695   10.5631 C.3     1  UNL1        0.0634
     31 C          62.4381   85.2978   12.0502 C.3     1  UNL1        0.0177
@<TRIPOS>BOND
     1    22    23    1
     2    23    24    1
     3    23    25    1
     4    25    26    1
     5    26    27    1
     6    27    28    1
     7    28    29    1
     8    29    30    1
     9    30    21    1
    10    21    19    1
    11    19     1    1
    12     1     2   ar
    13     2     3   ar
    14     3     4    1
    15     3     5   ar
    16     5     9    1
    17     9    10    2
    18     9    11    2
    19     9    12    1
    20    12    14    1
    21    14    15   ar
    22    15    16   ar
    23    16    17   ar
    24    17    18   ar
    25     5     6   ar
    26     6     7   ar
    27     7     8    1
    28    30    31    1
    29    31    23    1
    30    30    26    1
    31     7     1   ar
    32    18    14   ar
    33    19    20    1
    34    12    13    1
