@<TRIPOS>MOLECULE
*****
 40 44 0 0 0
SMALL
GASTEIGER

@<TRIPOS>ATOM
      1 C          63.9363   84.5481   13.9033 C.ar    1  UNL1        0.0951
      2 C          63.5882   83.1415   14.2912 C.ar    1  UNL1        0.1454
      3 F          64.0066   82.6071   15.6288 F       1  UNL1       -0.2040
      4 C          62.8217   82.2695   13.3415 C.ar    1  UNL1        0.0312
      5 C          62.4032   82.8040   12.0038 C.ar    1  UNL1        0.0204
      6 C          62.7513   84.2105   11.6159 C.ar    1  UNL1        0.0924
      7 C          63.5178   85.0825   12.5656 C.ar    1  UNL1        0.1598
      8 F          63.8659   86.4890   12.1777 F       1  UNL1       -0.2026
      9 C          64.7028   85.4201   14.8530 C.2     1  UNL1        0.2036
     10 O          66.1958   85.3040   14.9390 O.2     1  UNL1       -0.2863
     11 C          64.5067   90.2821   14.6562 C.2     1  UNL1        0.0322
     12 C          63.6464   90.8741   15.7329 C.2     1  UNL1        0.2321
     13 N          62.9593   89.9788   16.7210 N.2     1  UNL1       -0.0311
     14 C          63.1325   88.4915   16.6323 C.2     1  UNL1        0.3721
     15 N          62.5844   87.3661   17.4589 N.2     1  UNL1       -0.0307
     16 C          63.1060   86.0786   16.8930 C.2     1  UNL1        0.2390
     17 C          63.9764   86.4082   15.7166 C.2     1  UNL1        0.0896
     18 C          63.9927   87.8995   15.5555 C.2     1  UNL1        0.0774
     19 C          64.6798   88.7948   14.5675 C.3     1  UNL1        0.0647
     20 C          66.5680   92.9680   11.6918 C.ar    1  UNL1        0.3201
     21 N          67.2802   92.5451   12.9424 N.ar    1  UNL1       -0.1927
     22 C          66.5930   91.6498   13.9305 C.ar    1  UNL1        0.1050
     23 C          65.1938   91.1774   13.6681 C.ar    1  UNL1        0.0386
     24 C          64.4816   91.6004   12.4175 C.ar    1  UNL1        0.1050
     25 N          65.1687   92.4957   11.4294 N.ar    1  UNL1       -0.1927
     26 C          67.8122   93.2910    9.4342 C.3     1  UNL1        0.2559
     27 O          67.2550   93.8633   10.7038 O.3     1  UNL1       -0.4426
     28 N          62.3329   84.7449   10.2783 N.pl3   1  UNL1       -0.2127
     29 H          62.3638   84.1637    9.4843 H       1  UNL1        0.1738
     30 S          61.8672   86.1651   10.1505 S.O2    1  UNL1        0.0780
     31 O          62.7565   86.3493    8.9567 O.2     1  UNL1       -0.1498
     32 O          60.9778   85.9810   11.3443 O.2     1  UNL1       -0.1498
     33 C          61.4015   87.5853   10.0227 C.ar    1  UNL1        0.1797
     34 C          60.3199   87.9347    9.0439 C.ar    1  UNL1        0.1611
     35 F          59.7040   86.8640    8.1929 F       1  UNL1       -0.2027
     36 C          59.8542   89.3549    8.9161 C.ar    1  UNL1        0.0312
     37 C          60.4702   90.4256    9.7671 C.ar    1  UNL1        0.0047
     38 C          61.5518   90.0762   10.7459 C.ar    1  UNL1        0.0312
     39 C          62.0175   88.6560   10.8737 C.ar    1  UNL1        0.1611
     40 F          63.0991   88.3067   11.8524 F       1  UNL1       -0.2027
@<TRIPOS>BOND
     1    26    27    1
     2    27    20    1
     3    20    21   ar
     4    21    22   ar
     5    22    23   ar
     6    23    11    1
     7    11    12    2
     8    12    13    1
     9    13    14    2
    10    14    15    1
    11    15    16    2
    12    16    17    1
    13    17     9    1
    14     9    10    2
    15     9     1    1
    16     1     2   ar
    17     2     3    1
    18     2     4   ar
    19     4     5   ar
    20     5     6   ar
    21     6    28    1
    22    28    30    1
    23    30    31    2
    24    30    32    2
    25    30    33    1
    26    33    34   ar
    27    34    35    1
    28    34    36   ar
    29    36    37   ar
    30    37    38   ar
    31    38    39   ar
    32    39    40    1
    33     6     7   ar
    34     7     8    1
    35    17    18    2
    36    18    19    1
    37    23    24   ar
    38    24    25   ar
    39    25    20   ar
    40    19    11    1
    41    18    14    1
    42     7     1   ar
    43    39    33   ar
    44    28    29    1
@<TRIPOS>MOLECULE
*****
 40 44 0 0 0
SMALL
GASTEIGER

@<TRIPOS>ATOM
      1 C          64.8344   91.3384   12.6755 C.ar    1  UNL1        0.0951
      2 C          65.6023   92.1324   11.6606 C.ar    1  UNL1        0.1454
      3 F          67.0129   92.5532   11.9486 F       1  UNL1       -0.2040
      4 C          64.9595   92.5055   10.3577 C.ar    1  UNL1        0.0312
      5 C          63.5488   92.0847   10.0696 C.ar    1  UNL1        0.0204
      6 C          62.7810   91.2907   11.0845 C.ar    1  UNL1        0.0924
      7 C          63.4238   90.9176   12.3874 C.ar    1  UNL1        0.1598
      8 F          62.6559   90.1237   13.4023 F       1  UNL1       -0.2026
      9 C          65.4772   90.9653   13.9784 C.2     1  UNL1        0.2036
     10 O          66.9722   90.9440   14.0981 O.2     1  UNL1       -0.2863
     11 C          63.6092   86.6990   15.4016 C.2     1  UNL1        0.0322
     12 C          62.8060   86.8072   16.6638 C.2     1  UNL1        0.2321
     13 N          62.6522   88.1355   17.3433 N.2     1  UNL1       -0.0311
     14 C          63.3015   89.3557   16.7606 C.2     1  UNL1        0.3721
     15 N          63.3254   90.7886   17.2039 N.2     1  UNL1       -0.0307
     16 C          64.1433   91.5659   16.2156 C.2     1  UNL1        0.2390
     17 C          64.6249   90.6135   15.1616 C.2     1  UNL1        0.0896
     18 C          64.1047   89.2476   15.4984 C.2     1  UNL1        0.0774
     19 C          64.2585   87.9192   14.8189 C.3     1  UNL1        0.0647
     20 C          64.0707   82.7139   13.3628 C.ar    1  UNL1        0.3201
     21 N          63.9532   83.9657   12.5448 N.ar    1  UNL1       -0.1927
     22 C          63.7994   85.2941   13.2244 C.ar    1  UNL1        0.1050
     23 C          63.7630   85.3706   14.7220 C.ar    1  UNL1        0.0386
     24 C          63.8805   84.1189   15.5400 C.ar    1  UNL1        0.1050
     25 N          64.0344   82.7905   14.8605 N.ar    1  UNL1       -0.1927
     26 C          63.0097   80.6168   12.2556 C.3     1  UNL1        0.2559
     27 O          64.2246   81.3856   12.6833 O.3     1  UNL1       -0.4426
     28 N          61.3704   90.8699   10.7965 N.pl3   1  UNL1       -0.2127
     29 H          60.6187   91.4339   11.0901 H       1  UNL1        0.1738
     30 S          61.1050   89.5897   10.0611 S.O2    1  UNL1        0.0780
     31 O          62.4167   89.7280    9.3469 O.2     1  UNL1       -0.1498
     32 O          59.7931   89.4514   10.7752 O.2     1  UNL1       -0.1498
     33 C          60.8395   88.3095    9.3257 C.ar    1  UNL1        0.1797
     34 C          59.9169   88.3014    8.1431 C.ar    1  UNL1        0.1611
     35 F          59.2598   89.5734    7.6958 F       1  UNL1       -0.2027
     36 C          59.6515   87.0212    7.4077 C.ar    1  UNL1        0.0312
     37 C          60.3086   85.7492    7.8550 C.ar    1  UNL1        0.0047
     38 C          61.2313   85.7574    9.0377 C.ar    1  UNL1        0.0312
     39 C          61.4967   87.0375    9.7730 C.ar    1  UNL1        0.1611
     40 F          62.4193   87.0456   10.9557 F       1  UNL1       -0.2027
@<TRIPOS>BOND
     1    26    27    1
     2    27    20    1
     3    20    21   ar
     4    21    22   ar
     5    22    23   ar
     6    23    11    1
     7    11    12    2
     8    12    13    1
     9    13    14    2
    10    14    15    1
    11    15    16    2
    12    16    17    1
    13    17     9    1
    14     9    10    2
    15     9     1    1
    16     1     2   ar
    17     2     3    1
    18     2     4   ar
    19     4     5   ar
    20     5     6   ar
    21     6    28    1
    22    28    30    1
    23    30    31    2
    24    30    32    2
    25    30    33    1
    26    33    34   ar
    27    34    35    1
    28    34    36   ar
    29    36    37   ar
    30    37    38   ar
    31    38    39   ar
    32    39    40    1
    33     6     7   ar
    34     7     8    1
    35    17    18    2
    36    18    19    1
    37    23    24   ar
    38    24    25   ar
    39    25    20   ar
    40    19    11    1
    41    18    14    1
    42     7     1   ar
    43    39    33   ar
    44    28    29    1
@<TRIPOS>MOLECULE
*****
 40 44 0 0 0
SMALL
GASTEIGER

@<TRIPOS>ATOM
      1 C          61.4835   88.6235   10.6817 C.ar    1  UNL1        0.0951
      2 C          60.5257   88.7124    9.5307 C.ar    1  UNL1        0.1454
      3 F          59.6169   89.8987    9.4012 F       1  UNL1       -0.2040
      4 C          60.4769   87.6151    8.5092 C.ar    1  UNL1        0.0312
      5 C          61.3857   86.4288    8.6387 C.ar    1  UNL1        0.0204
      6 C          62.3435   86.3399    9.7897 C.ar    1  UNL1        0.0924
      7 C          62.3923   87.4373   10.8112 C.ar    1  UNL1        0.1598
      8 F          63.3501   87.3483   11.9622 F       1  UNL1       -0.2026
      9 C          61.5324   89.7209   11.7032 C.2     1  UNL1        0.2036
     10 O          60.5444   90.8478   11.6410 O.2     1  UNL1       -0.2863
     11 C          65.5909   92.3454   12.3000 C.2     1  UNL1        0.0322
     12 C          66.3432   91.9792   13.5449 C.2     1  UNL1        0.2321
     13 N          65.8191   90.9028   14.4486 N.2     1  UNL1       -0.0311
     14 C          64.5427   90.1927   14.1074 C.2     1  UNL1        0.3721
     15 N          63.7865   89.0986   14.8011 N.2     1  UNL1       -0.0307
     16 C          62.5668   88.7886   13.9849 C.2     1  UNL1        0.2390
     17 C          62.5691   89.6912   12.7868 C.2     1  UNL1        0.0896
     18 C          63.7903   90.5590   12.8626 C.2     1  UNL1        0.0774
     19 C          64.3144   91.6354   11.9589 C.3     1  UNL1        0.0647
     20 C          67.1631   95.5747    9.5888 C.ar    1  UNL1        0.3201
     21 N          67.1433   94.1487    9.1237 N.ar    1  UNL1       -0.1927
     22 C          66.6192   93.0723   10.0275 C.ar    1  UNL1        0.1050
     23 C          66.1150   93.4219   11.3962 C.ar    1  UNL1        0.0386
     24 C          66.1347   94.8478   11.8613 C.ar    1  UNL1        0.1050
     25 N          66.6588   95.9242   10.9576 N.ar    1  UNL1       -0.1927
     26 C          67.0768   96.8558    7.3303 C.3     1  UNL1        0.2559
     27 O          67.6872   96.6510    8.6851 O.3     1  UNL1       -0.4426
     28 N          63.2523   85.1537    9.9193 N.pl3   1  UNL1       -0.2127
     29 H          63.9865   85.0236    9.2764 H       1  UNL1        0.1738
     30 S          63.0425   84.1657   11.0283 S.O2    1  UNL1        0.0780
     31 O          64.4642   83.7083   10.8899 O.2     1  UNL1       -0.1498
     32 O          61.6206   84.6231   11.1667 O.2     1  UNL1       -0.1498
     33 C          62.8325   83.1777   12.1373 C.ar    1  UNL1        0.1797
     34 C          62.7028   83.6559   13.5531 C.ar    1  UNL1        0.1611
     35 F          62.7831   85.1220   13.8599 F       1  UNL1       -0.2027
     36 C          62.4929   82.6679   14.6621 C.ar    1  UNL1        0.0312
     37 C          62.4127   81.2018   14.3553 C.ar    1  UNL1        0.0047
     38 C          62.5424   80.7237   12.9395 C.ar    1  UNL1        0.0312
     39 C          62.7523   81.7117   11.8305 C.ar    1  UNL1        0.1611
     40 F          62.8820   81.2334   10.4147 F       1  UNL1       -0.2027
@<TRIPOS>BOND
     1    26    27    1
     2    27    20    1
     3    20    21   ar
     4    21    22   ar
     5    22    23   ar
     6    23    11    1
     7    11    12    2
     8    12    13    1
     9    13    14    2
    10    14    15    1
    11    15    16    2
    12    16    17    1
    13    17     9    1
    14     9    10    2
    15     9     1    1
    16     1     2   ar
    17     2     3    1
    18     2     4   ar
    19     4     5   ar
    20     5     6   ar
    21     6    28    1
    22    28    30    1
    23    30    31    2
    24    30    32    2
    25    30    33    1
    26    33    34   ar
    27    34    35    1
    28    34    36   ar
    29    36    37   ar
    30    37    38   ar
    31    38    39   ar
    32    39    40    1
    33     6     7   ar
    34     7     8    1
    35    17    18    2
    36    18    19    1
    37    23    24   ar
    38    24    25   ar
    39    25    20   ar
    40    19    11    1
    41    18    14    1
    42     7     1   ar
    43    39    33   ar
    44    28    29    1
@<TRIPOS>MOLECULE
*****
 40 44 0 0 0
SMALL
GASTEIGER

@<TRIPOS>ATOM
      1 C          63.2235   84.4866   10.4199 C.ar    1  UNL1        0.0951
      2 C          63.8798   83.2222    9.9502 C.ar    1  UNL1        0.1454
      3 F          64.2294   83.0522    8.5015 F       1  UNL1       -0.2040
      4 C          64.1864   82.1279   10.9292 C.ar    1  UNL1        0.0312
      5 C          63.8368   82.2979   12.3779 C.ar    1  UNL1        0.0204
      6 C          63.1805   83.5623   12.8477 C.ar    1  UNL1        0.0924
      7 C          62.8739   84.6566   11.8687 C.ar    1  UNL1        0.1598
      8 F          62.2176   85.9210   12.3385 F       1  UNL1       -0.2026
      9 C          62.9169   85.5809    9.4409 C.2     1  UNL1        0.2036
     10 O          63.8327   85.8255    8.2785 O.2     1  UNL1       -0.2863
     11 C          62.4132   90.1039   11.1744 C.2     1  UNL1        0.0322
     12 C          60.9874   90.5699   11.1798 C.2     1  UNL1        0.2321
     13 N          59.9004   89.6637   10.6827 N.2     1  UNL1       -0.0311
     14 C          60.2391   88.2915   10.1803 C.2     1  UNL1        0.3721
     15 N          59.3874   87.1845    9.6331 N.2     1  UNL1       -0.0307
     16 C          60.2869   86.0343    9.2896 C.2     1  UNL1        0.2390
     17 C          61.6944   86.4305    9.6244 C.2     1  UNL1        0.0896
     18 C          61.6648   87.8255   10.1749 C.2     1  UNL1        0.0774
     19 C          62.7518   88.7317   10.6719 C.3     1  UNL1        0.0647
     20 C          65.6746   92.8224   12.6655 C.ar    1  UNL1        0.3201
     21 N          64.8791   92.0022   13.6373 N.ar    1  UNL1       -0.1927
     22 C          63.7919   91.0960   13.1403 C.ar    1  UNL1        0.1050
     23 C          63.5003   91.0101   11.6714 C.ar    1  UNL1        0.0386
     24 C          64.2958   91.8303   10.6996 C.ar    1  UNL1        0.1050
     25 N          65.3829   92.7365   11.1966 N.ar    1  UNL1       -0.1927
     26 C          67.1954   93.6630   14.5968 C.3     1  UNL1        0.2559
     27 O          66.7617   93.7286   13.1625 O.3     1  UNL1       -0.4426
     28 N          62.8309   83.7324   14.2964 N.pl3   1  UNL1       -0.2127
     29 H          62.4942   82.9661   14.8148 H       1  UNL1        0.1738
     30 S          62.9943   85.0700   14.9553 S.O2    1  UNL1        0.0780
     31 O          61.5117   85.1456   15.1697 O.2     1  UNL1       -0.1498
     32 O          64.4770   84.9945   14.7409 O.2     1  UNL1       -0.1498
     33 C          63.1578   86.4076   15.6142 C.ar    1  UNL1        0.1797
     34 C          62.7939   86.5815   17.0589 C.ar    1  UNL1        0.1611
     35 F          62.2664   85.4178   17.8448 F       1  UNL1       -0.2027
     36 C          62.9574   87.9191   17.7178 C.ar    1  UNL1        0.0312
     37 C          63.4849   89.0828   16.9319 C.ar    1  UNL1        0.0047
     38 C          63.8488   88.9089   15.4872 C.ar    1  UNL1        0.0312
     39 C          63.6853   87.5713   14.8283 C.ar    1  UNL1        0.1611
     40 F          64.0493   87.3975   13.3836 F       1  UNL1       -0.2027
@<TRIPOS>BOND
     1    26    27    1
     2    27    20    1
     3    20    21   ar
     4    21    22   ar
     5    22    23   ar
     6    23    11    1
     7    11    12    2
     8    12    13    1
     9    13    14    2
    10    14    15    1
    11    15    16    2
    12    16    17    1
    13    17     9    1
    14     9    10    2
    15     9     1    1
    16     1     2   ar
    17     2     3    1
    18     2     4   ar
    19     4     5   ar
    20     5     6   ar
    21     6    28    1
    22    28    30    1
    23    30    31    2
    24    30    32    2
    25    30    33    1
    26    33    34   ar
    27    34    35    1
    28    34    36   ar
    29    36    37   ar
    30    37    38   ar
    31    38    39   ar
    32    39    40    1
    33     6     7   ar
    34     7     8    1
    35    17    18    2
    36    18    19    1
    37    23    24   ar
    38    24    25   ar
    39    25    20   ar
    40    19    11    1
    41    18    14    1
    42     7     1   ar
    43    39    33   ar
    44    28    29    1
@<TRIPOS>MOLECULE
*****
 40 44 0 0 0
SMALL
GASTEIGER

@<TRIPOS>ATOM
      1 C          63.6559   88.5838   16.0179 C.ar    1  UNL1        0.0951
      2 C          63.2535   87.8105   17.2386 C.ar    1  UNL1        0.1454
      3 F          62.8408   88.5369   18.4843 F       1  UNL1       -0.2040
      4 C          63.2639   86.3107   17.2135 C.ar    1  UNL1        0.0312
      5 C          63.6767   85.5843   15.9678 C.ar    1  UNL1        0.0204
      6 C          64.0791   86.3576   14.7471 C.ar    1  UNL1        0.0924
      7 C          64.0687   87.8573   14.7722 C.ar    1  UNL1        0.1598
      8 F          64.4711   88.6305   13.5515 F       1  UNL1       -0.2026
      9 C          63.6455   90.0835   16.0430 C.2     1  UNL1        0.2036
     10 O          62.8661   90.8105   17.0984 O.2     1  UNL1       -0.2863
     11 C          63.0181   90.4711   11.2293 C.2     1  UNL1        0.0322
     12 C          64.0337   91.3635   10.5798 C.2     1  UNL1        0.2321
     13 N          65.0936   92.0231   11.4114 N.2     1  UNL1       -0.0311
     14 C          65.1378   91.7902   12.8925 C.2     1  UNL1        0.3721
     15 N          66.0580   92.3003   13.9618 N.2     1  UNL1       -0.0307
     16 C          65.6109   91.7230   15.2721 C.2     1  UNL1        0.2390
     17 C          64.4145   90.8562   15.0127 C.2     1  UNL1        0.0896
     18 C          64.1221   90.8977   13.5420 C.2     1  UNL1        0.0774
     19 C          63.0623   90.2382   12.7104 C.3     1  UNL1        0.0647
     20 C          59.8383   88.4924    8.7344 C.ar    1  UNL1        0.3201
     21 N          61.1236   87.7734    9.0193 N.ar    1  UNL1       -0.1927
     22 C          62.1835   88.4330    9.8509 C.ar    1  UNL1        0.1050
     23 C          61.9581   89.8115   10.3976 C.ar    1  UNL1        0.0386
     24 C          60.6729   90.5305   10.1127 C.ar    1  UNL1        0.1050
     25 N          59.6130   89.8710    9.2812 N.ar    1  UNL1       -0.1927
     26 C          58.9298   86.3972    7.4957 C.3     1  UNL1        0.2559
     27 O          58.7784   87.8329    7.9028 O.3     1  UNL1       -0.4426
     28 N          64.4918   85.6311   13.5014 N.pl3   1  UNL1       -0.2127
     29 H          65.1037   86.0607   12.8609 H       1  UNL1        0.1738
     30 S          63.9722   84.2501   13.2316 S.O2    1  UNL1        0.0780
     31 O          65.2105   83.6647   13.8429 O.2     1  UNL1       -0.1498
     32 O          62.7338   84.8354   12.6202 O.2     1  UNL1       -0.1498
     33 C          63.4526   82.8690   12.9617 C.ar    1  UNL1        0.1797
     34 C          63.7395   82.2030   11.6487 C.ar    1  UNL1        0.1611
     35 F          64.5460   82.9180   10.6055 F       1  UNL1       -0.2027
     36 C          63.2198   80.8220   11.3789 C.ar    1  UNL1        0.0312
     37 C          62.4133   80.1070   12.4221 C.ar    1  UNL1        0.0047
     38 C          62.1263   80.7731   13.7351 C.ar    1  UNL1        0.0312
     39 C          62.6460   82.1541   14.0049 C.ar    1  UNL1        0.1611
     40 F          62.3591   82.8200   15.3180 F       1  UNL1       -0.2027
@<TRIPOS>BOND
     1    26    27    1
     2    27    20    1
     3    20    21   ar
     4    21    22   ar
     5    22    23   ar
     6    23    11    1
     7    11    12    2
     8    12    13    1
     9    13    14    2
    10    14    15    1
    11    15    16    2
    12    16    17    1
    13    17     9    1
    14     9    10    2
    15     9     1    1
    16     1     2   ar
    17     2     3    1
    18     2     4   ar
    19     4     5   ar
    20     5     6   ar
    21     6    28    1
    22    28    30    1
    23    30    31    2
    24    30    32    2
    25    30    33    1
    26    33    34   ar
    27    34    35    1
    28    34    36   ar
    29    36    37   ar
    30    37    38   ar
    31    38    39   ar
    32    39    40    1
    33     6     7   ar
    34     7     8    1
    35    17    18    2
    36    18    19    1
    37    23    24   ar
    38    24    25   ar
    39    25    20   ar
    40    19    11    1
    41    18    14    1
    42     7     1   ar
    43    39    33   ar
    44    28    29    1
