@<TRIPOS>MOLECULE
*****
 26 29 0 0 0
SMALL
GASTEIGER

@<TRIPOS>ATOM
      1 C          63.2182   90.6351   11.6845 C.2     1  UNL1        0.3270
      2 N          63.7806   91.7049   10.7962 N.2     1  UNL1       -0.0380
      3 C          64.9280   92.3495   11.5161 C.2     1  UNL1        0.2637
      4 C          65.8580   93.4610   11.1298 C.2     1  UNL1        0.2821
      5 N          66.9349   93.9012   12.0768 N.2     1  UNL1       -0.0268
      6 C          67.0816   93.2297   13.4101 C.2     1  UNL1        0.3760
      7 N          68.0408   93.4462   14.5428 N.2     1  UNL1       -0.0306
      8 C          67.7035   92.4683   15.6291 C.2     1  UNL1        0.2361
      9 C          66.5358   91.6475   15.1677 C.2     1  UNL1        0.0583
     10 C          66.1514   92.1181   13.7963 C.2     1  UNL1        0.1203
     11 C          65.0746   91.6780   12.8493 C.3     1  UNL1        0.2596
     12 N          64.0179   90.6184   12.9534 N.pl3   1  UNL1       -0.1887
     13 C          63.7994   89.7030   14.1213 C.3     1  UNL1        0.1605
     14 C          63.1447   90.2205   15.3678 C.3     1  UNL1        0.0466
     15 C          62.9262   89.3050   16.5357 C.3     1  UNL1        0.0041
     16 C          63.3622   87.8719   16.4572 C.3     1  UNL1        0.0013
     17 C          64.0169   87.3544   15.2108 C.3     1  UNL1        0.0041
     18 C          64.2355   88.2698   14.0429 C.3     1  UNL1        0.0466
     19 C          63.1437   86.9565   17.6252 C.3     1  UNL1        0.0162
     20 C          62.2553   85.7564   17.4815 C.3     1  UNL1        0.1054
     21 C          62.3770   84.8733   16.2750 C.1     1  UNL1        0.0731
     22 N          62.4987   83.9902   15.0687 N.1     1  UNL1       -0.1959
     23 C          62.1240   88.8308   10.1688 C.3     1  UNL1        0.0450
     24 C          62.0595   89.7393   11.3607 C.3     1  UNL1        0.2165
     25 O          60.8363   89.7518   12.2289 O.3     1  UNL1       -0.3737
     26 H          60.9579   90.3896   12.9495 H       1  UNL1        0.2111
@<TRIPOS>BOND
     1    24    23    1
     2    24    25    1
     3    24     1    1
     4     1     2    2
     5     2     3    1
     6     3     4    2
     7     4     5    1
     8     5     6    2
     9     6     7    1
    10     7     8    2
    11     8     9    1
    12     9    10    2
    13    10    11    1
    14    11    12    1
    15    13    12    1
    16    13    14    1
    17    14    15    1
    18    15    16    1
    19    16    19    1
    20    19    20    1
    21    20    21    1
    22    21    22    3
    23    16    17    1
    24    17    18    1
    25    12     1    1
    26    18    13    1
    27    11     3    1
    28    10     6    1
    29    25    26    1
@<TRIPOS>MOLECULE
*****
 26 29 0 0 0
SMALL
GASTEIGER

@<TRIPOS>ATOM
      1 C          63.8787   90.3081   15.2021 C.2     1  UNL1        0.3270
      2 N          64.7698   91.2503   15.9559 N.2     1  UNL1       -0.0380
      3 C          65.4679   92.1263   14.9581 C.2     1  UNL1        0.2637
      4 C          66.4627   93.2370   15.1204 C.2     1  UNL1        0.2821
      5 N          66.9979   93.9471   13.9123 N.2     1  UNL1       -0.0268
      6 C          66.5381   93.5463   12.5419 C.2     1  UNL1        0.3760
      7 N          66.8870   94.0593   11.1763 N.2     1  UNL1       -0.0306
      8 C          66.1077   93.2655   10.1699 C.2     1  UNL1        0.2361
      9 C          65.2772   92.2619   10.9137 C.2     1  UNL1        0.0583
     10 C          65.5433   92.4354   12.3797 C.2     1  UNL1        0.1203
     11 C          65.0081   91.7254   13.5878 C.3     1  UNL1        0.2596
     12 N          64.0260   90.6018   13.7385 N.pl3   1  UNL1       -0.1887
     13 C          63.3158   89.8957   12.6218 C.3     1  UNL1        0.1605
     14 C          62.5211   90.6827   11.6223 C.3     1  UNL1        0.0466
     15 C          61.8109   89.9765   10.5055 C.3     1  UNL1        0.0041
     16 C          61.8954   88.4835   10.3884 C.3     1  UNL1        0.0013
     17 C          62.6901   87.6966   11.3880 C.3     1  UNL1        0.0041
     18 C          63.4003   88.4026   12.5047 C.3     1  UNL1        0.0466
     19 C          61.1852   87.7775    9.2717 C.3     1  UNL1        0.0162
     20 C          59.7950   88.1897    8.8877 C.3     1  UNL1        0.1054
     21 C          59.5594   88.9272    7.6028 C.1     1  UNL1        0.0731
     22 N          59.3238   89.6646    6.3181 N.1     1  UNL1       -0.1959
     23 C          63.5776   87.9412   16.2303 C.3     1  UNL1        0.0450
     24 C          62.9953   89.2569   15.8059 C.3     1  UNL1        0.2165
     25 O          61.5298   89.5213   15.9854 O.3     1  UNL1       -0.3737
     26 H          61.3199   90.4115   15.6622 H       1  UNL1        0.2111
@<TRIPOS>BOND
     1    24    23    1
     2    24    25    1
     3    24     1    1
     4     1     2    2
     5     2     3    1
     6     3     4    2
     7     4     5    1
     8     5     6    2
     9     6     7    1
    10     7     8    2
    11     8     9    1
    12     9    10    2
    13    10    11    1
    14    11    12    1
    15    13    12    1
    16    13    14    1
    17    14    15    1
    18    15    16    1
    19    16    19    1
    20    19    20    1
    21    20    21    1
    22    21    22    3
    23    16    17    1
    24    17    18    1
    25    12     1    1
    26    18    13    1
    27    11     3    1
    28    10     6    1
    29    25    26    1
@<TRIPOS>MOLECULE
*****
 26 29 0 0 0
SMALL
GASTEIGER

@<TRIPOS>ATOM
      1 C          65.7978   92.1323   14.2854 C.2     1  UNL1        0.3270
      2 N          65.9817   93.0075   13.0812 N.2     1  UNL1       -0.0380
      3 C          65.0787   92.4993   11.9965 C.2     1  UNL1        0.2637
      4 C          64.8362   92.9659   10.5918 C.2     1  UNL1        0.2821
      5 N          63.8517   92.2432    9.7208 N.2     1  UNL1       -0.0268
      6 C          63.1098   91.0539   10.2547 C.2     1  UNL1        0.3760
      7 N          62.0869   90.1482    9.6354 N.2     1  UNL1       -0.0306
      8 C          61.6973   89.1218   10.6576 C.2     1  UNL1        0.2361
      9 C          62.4793   89.3932   11.9085 C.2     1  UNL1        0.0583
     10 C          63.3523   90.5873   11.6595 C.2     1  UNL1        0.1203
     11 C          64.3367   91.3100   12.5304 C.3     1  UNL1        0.2596
     12 N          64.7812   91.0832   13.9450 N.pl3   1  UNL1       -0.1887
     13 C          64.2944   89.9978   14.8588 C.3     1  UNL1        0.1605
     14 C          63.5070   90.3480   16.0865 C.3     1  UNL1        0.0466
     15 C          63.0203   89.2625   17.0003 C.3     1  UNL1        0.0041
     16 C          63.3210   87.8269   16.6863 C.3     1  UNL1        0.0013
     17 C          64.1084   87.4767   15.4585 C.3     1  UNL1        0.0041
     18 C          64.5951   88.5621   14.5448 C.3     1  UNL1        0.0466
     19 C          62.8343   86.7416   17.6001 C.3     1  UNL1        0.0162
     20 C          61.9527   85.6514   17.0668 C.3     1  UNL1        0.1054
     21 C          62.5142   84.6244   16.1286 C.1     1  UNL1        0.0731
     22 N          63.0757   83.5974   15.1905 N.1     1  UNL1       -0.1959
     23 C          67.9549   91.9096   15.7161 C.3     1  UNL1        0.0450
     24 C          66.5061   92.2802   15.5993 C.3     1  UNL1        0.2165
     25 O          65.7657   92.7987   16.7963 O.3     1  UNL1       -0.3737
     26 H          64.8468   92.9888   16.5507 H       1  UNL1        0.2111
@<TRIPOS>BOND
     1    24    23    1
     2    24    25    1
     3    24     1    1
     4     1     2    2
     5     2     3    1
     6     3     4    2
     7     4     5    1
     8     5     6    2
     9     6     7    1
    10     7     8    2
    11     8     9    1
    12     9    10    2
    13    10    11    1
    14    11    12    1
    15    13    12    1
    16    13    14    1
    17    14    15    1
    18    15    16    1
    19    16    19    1
    20    19    20    1
    21    20    21    1
    22    21    22    3
    23    16    17    1
    24    17    18    1
    25    12     1    1
    26    18    13    1
    27    11     3    1
    28    10     6    1
    29    25    26    1
@<TRIPOS>MOLECULE
*****
 26 29 0 0 0
SMALL
GASTEIGER

@<TRIPOS>ATOM
      1 C          61.2829   87.2913    9.2143 C.2     1  UNL1        0.3270
      2 N          61.1356   88.7809    9.1184 N.2     1  UNL1       -0.0380
      3 C          61.8356   89.3927   10.2957 C.2     1  UNL1        0.2637
      4 C          62.0198   90.8183   10.7241 C.2     1  UNL1        0.2821
      5 N          62.7839   91.1324   11.9762 N.2     1  UNL1       -0.0268
      6 C          63.3638   90.0208   12.7996 C.2     1  UNL1        0.3760
      7 N          64.1587   90.0235   14.0717 N.2     1  UNL1       -0.0306
      8 C          64.4657   88.5994   14.4293 C.2     1  UNL1        0.2361
      9 C          63.8606   87.7167   13.3783 C.2     1  UNL1        0.0583
     10 C          63.1795   88.5952   12.3711 C.2     1  UNL1        0.1203
     11 C          62.4154   88.2811   11.1191 C.3     1  UNL1        0.2596
     12 N          62.0739   86.9824   10.4508 N.pl3   1  UNL1       -0.1887
     13 C          62.4562   85.6148   10.9342 C.3     1  UNL1        0.1605
     14 C          63.2108   84.6842   10.0317 C.3     1  UNL1        0.0466
     15 C          63.5931   83.3166   10.5151 C.3     1  UNL1        0.0041
     16 C          63.2207   82.8797   11.9009 C.3     1  UNL1        0.0013
     17 C          62.4661   83.8103   12.8034 C.3     1  UNL1        0.0041
     18 C          62.0838   85.1779   12.3200 C.3     1  UNL1        0.0466
     19 C          63.6030   81.5122   12.3843 C.3     1  UNL1        0.0162
     20 C          63.1463   81.0382   13.7321 C.3     1  UNL1        0.1054
     21 C          61.6851   80.8265   13.9972 C.1     1  UNL1        0.0731
     22 N          60.2240   80.6147   14.2621 N.1     1  UNL1       -0.1959
     23 C          61.6710   85.4451    7.4280 C.3     1  UNL1        0.0450
     24 C          60.7354   86.2869    8.2441 C.3     1  UNL1        0.2165
     25 O          59.2522   86.1243    8.0899 O.3     1  UNL1       -0.3737
     26 H          58.7959   86.7391    8.6855 H       1  UNL1        0.2111
@<TRIPOS>BOND
     1    24    23    1
     2    24    25    1
     3    24     1    1
     4     1     2    2
     5     2     3    1
     6     3     4    2
     7     4     5    1
     8     5     6    2
     9     6     7    1
    10     7     8    2
    11     8     9    1
    12     9    10    2
    13    10    11    1
    14    11    12    1
    15    13    12    1
    16    13    14    1
    17    14    15    1
    18    15    16    1
    19    16    19    1
    20    19    20    1
    21    20    21    1
    22    21    22    3
    23    16    17    1
    24    17    18    1
    25    12     1    1
    26    18    13    1
    27    11     3    1
    28    10     6    1
    29    25    26    1
@<TRIPOS>MOLECULE
*****
 26 29 0 0 0
SMALL
GASTEIGER

@<TRIPOS>ATOM
      1 C          63.4477   88.2928   13.0751 C.2     1  UNL1        0.3270
      2 N          64.2723   87.7961   14.2254 N.2     1  UNL1       -0.0380
      3 C          64.2652   86.2966   14.1875 C.2     1  UNL1        0.2637
      4 C          64.9065   85.2672   15.0700 C.2     1  UNL1        0.2821
      5 N          64.7188   83.8077   14.7789 N.2     1  UNL1       -0.0268
      6 C          63.8898   83.3777   13.6051 C.2     1  UNL1        0.3760
      7 N          63.5297   82.0221   13.0734 N.2     1  UNL1       -0.0306
      8 C          62.6658   82.2138   11.8622 C.2     1  UNL1        0.2361
      9 C          62.4920   83.6878   11.6453 C.2     1  UNL1        0.0583
     10 C          63.2484   84.4072   12.7225 C.2     1  UNL1        0.1203
     11 C          63.4362   85.8666   13.0137 C.3     1  UNL1        0.2596
     12 N          62.9309   87.1003   12.3262 N.pl3   1  UNL1       -0.1887
     13 C          62.0615   87.1354   11.1044 C.3     1  UNL1        0.1605
     14 C          62.5664   86.5741    9.8082 C.3     1  UNL1        0.0466
     15 C          61.6970   86.6092    8.5864 C.3     1  UNL1        0.0041
     16 C          60.3227   87.2056    8.6607 C.3     1  UNL1        0.0013
     17 C          59.8178   87.7670    9.9568 C.3     1  UNL1        0.0041
     18 C          60.6872   87.7319   11.1786 C.3     1  UNL1        0.0466
     19 C          59.4534   87.2407    7.4388 C.3     1  UNL1        0.0162
     20 C          58.6925   88.4870    7.0952 C.3     1  UNL1        0.1054
     21 C          59.3355   89.5507    6.2555 C.1     1  UNL1        0.0731
     22 N          59.9785   90.6143    5.4157 N.1     1  UNL1       -0.1959
     23 C          63.3355   90.2037   11.3184 C.3     1  UNL1        0.0450
     24 C          63.1858   89.7298   12.7337 C.3     1  UNL1        0.2165
     25 O          62.7743   90.6928   13.8075 O.3     1  UNL1       -0.3737
     26 H          62.7250   90.2278   14.6574 H       1  UNL1        0.2111
@<TRIPOS>BOND
     1    24    23    1
     2    24    25    1
     3    24     1    1
     4     1     2    2
     5     2     3    1
     6     3     4    2
     7     4     5    1
     8     5     6    2
     9     6     7    1
    10     7     8    2
    11     8     9    1
    12     9    10    2
    13    10    11    1
    14    11    12    1
    15    13    12    1
    16    13    14    1
    17    14    15    1
    18    15    16    1
    19    16    19    1
    20    19    20    1
    21    20    21    1
    22    21    22    3
    23    16    17    1
    24    17    18    1
    25    12     1    1
    26    18    13    1
    27    11     3    1
    28    10     6    1
    29    25    26    1
@<TRIPOS>MOLECULE
*****
 26 29 0 0 0
SMALL
GASTEIGER

@<TRIPOS>ATOM
      1 C          63.9036   87.0860   13.8628 C.2     1  UNL1        0.3270
      2 N          63.8263   88.5438   13.5179 N.2     1  UNL1       -0.0380
      3 C          63.0637   88.6764   12.2330 C.2     1  UNL1        0.2637
      4 C          62.6771   89.8721   11.4141 C.2     1  UNL1        0.2821
      5 N          61.8965   89.6921   10.1459 N.2     1  UNL1       -0.0268
      6 C          61.5024   88.3162    9.6967 C.2     1  UNL1        0.3760
      7 N          60.7380   87.8314    8.5007 N.2     1  UNL1       -0.0306
      8 C          60.6521   86.3360    8.5805 C.2     1  UNL1        0.2361
      9 C          61.3634   85.8966    9.8258 C.2     1  UNL1        0.0583
     10 C          61.8890   87.1205   10.5157 C.2     1  UNL1        0.1203
     11 C          62.6696   87.3005   11.7839 C.3     1  UNL1        0.2596
     12 N          63.1887   86.3177   12.7911 N.pl3   1  UNL1       -0.1887
     13 C          63.0221   84.8280   12.7363 C.3     1  UNL1        0.1605
     14 C          63.4332   84.0720   11.5076 C.3     1  UNL1        0.0466
     15 C          63.2666   82.5823   11.4529 C.3     1  UNL1        0.0041
     16 C          62.6890   81.8485   12.6267 C.3     1  UNL1        0.0013
     17 C          62.2780   82.6045   13.8554 C.3     1  UNL1        0.0041
     18 C          62.4445   84.0941   13.9102 C.3     1  UNL1        0.0466
     19 C          62.5225   80.3588   12.5719 C.3     1  UNL1        0.0162
     20 C          61.8960   79.6313   13.7244 C.3     1  UNL1        0.1054
     21 C          60.4719   79.9114   14.1032 C.1     1  UNL1        0.0731
     22 N          59.0478   80.1915   14.4820 N.1     1  UNL1       -0.1959
     23 C          63.8524   86.4439   16.3797 C.3     1  UNL1        0.0450
     24 C          64.5774   86.4996   15.0678 C.3     1  UNL1        0.2165
     25 O          65.9763   85.9690   14.9608 O.3     1  UNL1       -0.3737
     26 H          66.2959   86.0806   14.0518 H       1  UNL1        0.2111
@<TRIPOS>BOND
     1    24    23    1
     2    24    25    1
     3    24     1    1
     4     1     2    2
     5     2     3    1
     6     3     4    2
     7     4     5    1
     8     5     6    2
     9     6     7    1
    10     7     8    2
    11     8     9    1
    12     9    10    2
    13    10    11    1
    14    11    12    1
    15    13    12    1
    16    13    14    1
    17    14    15    1
    18    15    16    1
    19    16    19    1
    20    19    20    1
    21    20    21    1
    22    21    22    3
    23    16    17    1
    24    17    18    1
    25    12     1    1
    26    18    13    1
    27    11     3    1
    28    10     6    1
    29    25    26    1
@<TRIPOS>MOLECULE
*****
 26 29 0 0 0
SMALL
GASTEIGER

@<TRIPOS>ATOM
      1 C          63.9750   86.5647   13.8757 C.2     1  UNL1        0.3270
      2 N          63.8788   88.0460   13.6599 N.2     1  UNL1       -0.0380
      3 C          63.1077   88.2811   12.3949 C.2     1  UNL1        0.2637
      4 C          62.7029   89.5390   11.6853 C.2     1  UNL1        0.2821
      5 N          61.9176   89.4610   10.4096 N.2     1  UNL1       -0.0268
      6 C          61.5373   88.1250    9.8435 C.2     1  UNL1        0.3760
      7 N          60.7722   87.7373    8.6130 N.2     1  UNL1       -0.0306
      8 C          60.7043   86.2397    8.5621 C.2     1  UNL1        0.2361
      9 C          61.4274   85.7018    9.7612 C.2     1  UNL1        0.0583
     10 C          61.9422   86.8670   10.5532 C.2     1  UNL1        0.1203
     11 C          62.7274   86.9451   11.8288 C.3     1  UNL1        0.2596
     12 N          63.2634   85.8843   12.7440 N.pl3   1  UNL1       -0.1887
     13 C          63.1140   84.4032   12.5599 C.3     1  UNL1        0.1605
     14 C          63.7326   83.7290   11.3712 C.3     1  UNL1        0.0466
     15 C          63.5832   82.2478   11.1871 C.3     1  UNL1        0.0041
     16 C          62.8153   81.4409   12.1916 C.3     1  UNL1        0.0013
     17 C          62.1967   82.1151   13.3803 C.3     1  UNL1        0.0041
     18 C          62.3461   83.5962   13.5644 C.3     1  UNL1        0.0466
     19 C          62.6659   79.9598   12.0075 C.3     1  UNL1        0.0162
     20 C          62.7606   79.3613   10.6354 C.3     1  UNL1        0.1054
     21 C          62.9495   77.8819   10.4738 C.1     1  UNL1        0.0731
     22 N          63.1384   76.4027   10.3122 N.1     1  UNL1       -0.1959
     23 C          63.9192   85.6352   16.3011 C.3     1  UNL1        0.0450
     24 C          64.6621   85.8835   15.0219 C.3     1  UNL1        0.2165
     25 O          66.0921   85.4507   14.8889 O.3     1  UNL1       -0.3737
     26 H          66.4199   85.6846   14.0064 H       1  UNL1        0.2111
@<TRIPOS>BOND
     1    24    23    1
     2    24    25    1
     3    24     1    1
     4     1     2    2
     5     2     3    1
     6     3     4    2
     7     4     5    1
     8     5     6    2
     9     6     7    1
    10     7     8    2
    11     8     9    1
    12     9    10    2
    13    10    11    1
    14    11    12    1
    15    13    12    1
    16    13    14    1
    17    14    15    1
    18    15    16    1
    19    16    19    1
    20    19    20    1
    21    20    21    1
    22    21    22    3
    23    16    17    1
    24    17    18    1
    25    12     1    1
    26    18    13    1
    27    11     3    1
    28    10     6    1
    29    25    26    1
@<TRIPOS>MOLECULE
*****
 26 29 0 0 0
SMALL
GASTEIGER

@<TRIPOS>ATOM
      1 C          62.2138   89.1496   11.2267 C.2     1  UNL1        0.3270
      2 N          61.7401   87.8820   10.5795 N.2     1  UNL1       -0.0380
      3 C          62.2839   86.7276   11.3681 C.2     1  UNL1        0.2637
      4 C          62.1463   85.2435   11.1996 C.2     1  UNL1        0.2821
      5 N          62.8186   84.3135   12.1657 N.2     1  UNL1       -0.0268
      6 C          63.6284   84.8677   13.3001 C.2     1  UNL1        0.3760
      7 N          64.3997   84.2027   14.4015 N.2     1  UNL1       -0.0306
      8 C          65.0139   85.2758   15.2506 C.2     1  UNL1        0.2361
      9 C          64.6223   86.6041   14.6740 C.2     1  UNL1        0.0583
     10 C          63.7660   86.3518   13.4686 C.2     1  UNL1        0.1203
     11 C          63.0937   87.2818   12.5025 C.3     1  UNL1        0.2596
     12 N          63.0504   88.7786   12.4152 N.pl3   1  UNL1       -0.1887
     13 C          63.7252   89.7364   13.3518 C.3     1  UNL1        0.1605
     14 C          64.7968   90.6541   12.8425 C.3     1  UNL1        0.0466
     15 C          65.4716   91.6119   13.7793 C.3     1  UNL1        0.0041
     16 C          65.0747   91.6519   15.2252 C.3     1  UNL1        0.0013
     17 C          64.0031   90.7342   15.7345 C.3     1  UNL1        0.0041
     18 C          63.3283   89.7765   14.7979 C.3     1  UNL1        0.0466
     19 C          65.7495   92.6097   16.1619 C.3     1  UNL1        0.0162
     20 C          67.2173   92.4770   16.4413 C.3     1  UNL1        0.1054
     21 C          68.1999   92.4817   15.3079 C.1     1  UNL1        0.0731
     22 N          69.1825   92.4865   14.1745 N.1     1  UNL1       -0.1959
     23 C          62.9253   91.3189    9.9866 C.3     1  UNL1        0.0450
     24 C          61.9051   90.5433   10.7662 C.3     1  UNL1        0.2165
     25 O          60.5762   91.1616   11.0853 O.3     1  UNL1       -0.3737
     26 H          60.0393   90.5312   11.5906 H       1  UNL1        0.2111
@<TRIPOS>BOND
     1    24    23    1
     2    24    25    1
     3    24     1    1
     4     1     2    2
     5     2     3    1
     6     3     4    2
     7     4     5    1
     8     5     6    2
     9     6     7    1
    10     7     8    2
    11     8     9    1
    12     9    10    2
    13    10    11    1
    14    11    12    1
    15    13    12    1
    16    13    14    1
    17    14    15    1
    18    15    16    1
    19    16    19    1
    20    19    20    1
    21    20    21    1
    22    21    22    3
    23    16    17    1
    24    17    18    1
    25    12     1    1
    26    18    13    1
    27    11     3    1
    28    10     6    1
    29    25    26    1
@<TRIPOS>MOLECULE
*****
 26 29 0 0 0
SMALL
GASTEIGER

@<TRIPOS>ATOM
      1 C          62.7358   83.0655   14.2330 C.2     1  UNL1        0.3270
      2 N          62.8189   83.3800   15.6973 N.2     1  UNL1       -0.0380
      3 C          63.1068   84.8452   15.8411 C.2     1  UNL1        0.2637
      4 C          63.2948   85.7175   17.0467 C.2     1  UNL1        0.2821
      5 N          63.5777   87.1808   16.8770 N.2     1  UNL1       -0.0268
      6 C          63.6724   87.7717   15.5015 C.2     1  UNL1        0.3760
      7 N          63.9379   89.1692   15.0257 N.2     1  UNL1       -0.0306
      8 C          63.9139   89.1605   13.5259 C.2     1  UNL1        0.2361
      9 C          63.6336   87.7577   13.0748 C.2     1  UNL1        0.0583
     10 C          63.4844   86.8993   14.2959 C.2     1  UNL1        0.1203
     11 C          63.2015   85.4361   14.4657 C.3     1  UNL1        0.2596
     12 N          62.9722   84.3362   13.4718 N.pl3   1  UNL1       -0.1887
     13 C          62.9783   84.4814   11.9789 C.3     1  UNL1        0.1605
     14 C          63.8884   83.6282   11.1460 C.3     1  UNL1        0.0466
     15 C          63.8945   83.7735    9.6531 C.3     1  UNL1        0.0041
     16 C          62.9905   84.7720    8.9930 C.3     1  UNL1        0.0013
     17 C          62.0804   85.6253    9.8259 C.3     1  UNL1        0.0041
     18 C          62.0743   85.4800   11.3188 C.3     1  UNL1        0.0466
     19 C          62.9966   84.9173    7.5001 C.3     1  UNL1        0.0162
     20 C          61.7239   84.7467    6.7248 C.3     1  UNL1        0.1054
     21 C          60.5031   85.5309    7.1052 C.1     1  UNL1        0.0731
     22 N          59.2823   86.3151    7.4857 N.1     1  UNL1       -0.1959
     23 C          61.1522   81.0349   13.8883 C.3     1  UNL1        0.0450
     24 C          62.4639   81.7170   13.6350 C.3     1  UNL1        0.2165
     25 O          63.5037   81.0507   12.7837 O.3     1  UNL1       -0.3737
     26 H          64.2853   81.6219   12.7215 H       1  UNL1        0.2111
@<TRIPOS>BOND
     1    24    23    1
     2    24    25    1
     3    24     1    1
     4     1     2    2
     5     2     3    1
     6     3     4    2
     7     4     5    1
     8     5     6    2
     9     6     7    1
    10     7     8    2
    11     8     9    1
    12     9    10    2
    13    10    11    1
    14    11    12    1
    15    13    12    1
    16    13    14    1
    17    14    15    1
    18    15    16    1
    19    16    19    1
    20    19    20    1
    21    20    21    1
    22    21    22    3
    23    16    17    1
    24    17    18    1
    25    12     1    1
    26    18    13    1
    27    11     3    1
    28    10     6    1
    29    25    26    1
