@<TRIPOS>MOLECULE
*****
 31 34 0 0 0
SMALL
GASTEIGER

@<TRIPOS>ATOM
      1 C          61.4461   88.1804   11.0049 C.ar    1  UNL1        0.1389
      2 C          62.2807   89.3208   11.5078 C.ar    1  UNL1        0.0553
      3 C          63.3808   89.0667   12.4953 C.ar    1  UNL1        0.1048
      4 N          63.6464   87.6723   12.9799 N.ar    1  UNL1       -0.2083
      5 C          62.8118   86.5319   12.4770 C.ar    1  UNL1        0.2539
      6 N          61.7117   86.7859   11.4896 N.ar    1  UNL1       -0.1948
      7 N          63.0774   85.1373   12.9617 N.ar    1  UNL1       -0.2008
      8 N          62.7345   83.8710   12.2345 N.ar    1  UNL1       -0.1673
      9 C          63.1776   82.7153   13.0819 C.ar    1  UNL1        0.0806
     10 C          63.0299   81.2626   12.7387 C.3     1  UNL1        0.0540
     11 C          63.7944   83.2675   14.3328 C.ar    1  UNL1        0.0313
     12 C          63.7325   84.7643   14.2585 C.ar    1  UNL1        0.0651
     13 C          64.2371   85.7203   15.2984 C.3     1  UNL1        0.0523
     14 C          64.2154   90.2072   12.9981 C.ar    1  UNL1        0.1005
     15 C          64.5556   90.3020   14.4560 C.ar    1  UNL1        0.0208
     16 C          65.3901   91.4424   14.9588 C.ar    1  UNL1        0.0045
     17 C          65.8846   92.4882   14.0038 C.ar    1  UNL1        0.0343
     18 C          65.5445   92.3934   12.5460 C.ar    1  UNL1        0.1318
     19 N          64.7099   91.2529   12.0431 N.ar    1  UNL1       -0.2292
     20 N          66.0389   93.4391   11.5910 N.pl3   1  UNL1       -0.2904
     21 C          66.0164   94.8860   11.9857 C.3     1  UNL1        0.1095
     22 C          66.5108   95.9318   11.0307 C.3     1  UNL1        0.0939
     23 N          67.0278   95.5305    9.6810 N.3     1  UNL1       -0.2686
     24 C          67.5222   96.5762    8.7260 C.3     1  UNL1        0.0897
     25 C          67.0503   94.0835    9.2863 C.3     1  UNL1        0.0939
     26 C          66.5558   93.0378   10.2413 C.3     1  UNL1        0.1095
     27 C          59.2100   87.9312    7.7357 C.3     1  UNL1        0.0950
     28 C          60.3102   87.6771    8.7232 C.2     1  UNL1        0.2277
     29 O          61.3746   86.6657    8.4164 O.2     1  UNL1       -0.2747
     30 N          60.3459   88.4344   10.0175 N.am    1  UNL1       -0.2692
     31 H          59.6473   89.0982   10.2188 H       1  UNL1        0.1563
@<TRIPOS>BOND
     1    27    28    1
     2    28    29    2
     3    28    30   am
     4    30     1    1
     5     1     2   ar
     6     2     3   ar
     7     3    14    1
     8    14    15   ar
     9    15    16   ar
    10    16    17   ar
    11    17    18   ar
    12    18    20    1
    13    20    21    1
    14    21    22    1
    15    22    23    1
    16    23    24    1
    17    23    25    1
    18    25    26    1
    19    18    19   ar
    20     3     4   ar
    21     4     5   ar
    22     5     7    1
    23     7     8   ar
    24     8     9   ar
    25     9    10    1
    26     9    11   ar
    27    11    12   ar
    28    12    13    1
    29     5     6   ar
    30     6     1   ar
    31    19    14   ar
    32    12     7   ar
    33    26    20    1
    34    30    31    1
@<TRIPOS>MOLECULE
*****
 31 34 0 0 0
SMALL
GASTEIGER

@<TRIPOS>ATOM
      1 C          63.8271   87.2899   13.9784 C.ar    1  UNL1        0.1389
      2 C          64.5335   88.5909   14.2201 C.ar    1  UNL1        0.0553
      3 C          64.3207   89.7448   13.2856 C.ar    1  UNL1        0.1048
      4 N          63.4016   89.5977   12.1094 N.ar    1  UNL1       -0.2083
      5 C          62.6952   88.2967   11.8677 C.ar    1  UNL1        0.2539
      6 N          62.9079   87.1429   12.8022 N.ar    1  UNL1       -0.1948
      7 N          61.7761   88.1496   10.6914 N.ar    1  UNL1       -0.2008
      8 N          61.6886   86.9581    9.7844 N.ar    1  UNL1       -0.1673
      9 C          60.6415   87.2402    8.7481 C.ar    1  UNL1        0.0806
     10 C          60.2269   86.3183    7.6399 C.3     1  UNL1        0.0540
     11 C          60.0818   88.6061    9.0146 C.ar    1  UNL1        0.0313
     12 C          60.7830   89.1681   10.2156 C.ar    1  UNL1        0.0651
     13 C          60.5347   90.5127   10.8325 C.3     1  UNL1        0.0523
     14 C          65.0272   91.0458   13.5274 C.ar    1  UNL1        0.1005
     15 C          65.4072   91.4449   14.9225 C.ar    1  UNL1        0.0208
     16 C          66.1136   92.7458   15.1643 C.ar    1  UNL1        0.0045
     17 C          66.4401   93.6477   14.0109 C.ar    1  UNL1        0.0343
     18 C          66.0601   93.2486   12.6158 C.ar    1  UNL1        0.1318
     19 N          65.3536   91.9476   12.3741 N.ar    1  UNL1       -0.2292
     20 N          66.3865   94.1504   11.4625 N.pl3   1  UNL1       -0.2904
     21 C          66.1053   95.6207   11.5573 C.3     1  UNL1        0.1095
     22 C          66.4317   96.5226   10.4039 C.3     1  UNL1        0.0939
     23 N          67.0393   95.9541    9.1559 N.3     1  UNL1       -0.2686
     24 C          67.3657   96.8559    8.0026 C.3     1  UNL1        0.0897
     25 C          67.3205   94.4837    9.0612 C.3     1  UNL1        0.0939
     26 C          66.9941   93.5819   10.2145 C.3     1  UNL1        0.1095
     27 C          64.2810   83.5805   15.3141 C.3     1  UNL1        0.0950
     28 C          64.0683   84.7344   14.3796 C.2     1  UNL1        0.2277
     29 O          63.8840   84.4866   12.9117 O.2     1  UNL1       -0.2747
     30 N          64.0398   86.1361   14.9129 N.am    1  UNL1       -0.2692
     31 H          64.1607   86.2987   15.8763 H       1  UNL1        0.1563
@<TRIPOS>BOND
     1    27    28    1
     2    28    29    2
     3    28    30   am
     4    30     1    1
     5     1     2   ar
     6     2     3   ar
     7     3    14    1
     8    14    15   ar
     9    15    16   ar
    10    16    17   ar
    11    17    18   ar
    12    18    20    1
    13    20    21    1
    14    21    22    1
    15    22    23    1
    16    23    24    1
    17    23    25    1
    18    25    26    1
    19    18    19   ar
    20     3     4   ar
    21     4     5   ar
    22     5     7    1
    23     7     8   ar
    24     8     9   ar
    25     9    10    1
    26     9    11   ar
    27    11    12   ar
    28    12    13    1
    29     5     6   ar
    30     6     1   ar
    31    19    14   ar
    32    12     7   ar
    33    26    20    1
    34    30    31    1
@<TRIPOS>MOLECULE
*****
 31 34 0 0 0
SMALL
GASTEIGER

@<TRIPOS>ATOM
      1 C          63.6695   87.1789   13.9064 C.ar    1  UNL1        0.1389
      2 C          64.3649   88.4775   14.1892 C.ar    1  UNL1        0.0553
      3 C          64.2372   89.6216   13.2276 C.ar    1  UNL1        0.1048
      4 N          63.4140   89.4672   11.9832 N.ar    1  UNL1       -0.2083
      5 C          62.7186   88.1686   11.7005 C.ar    1  UNL1        0.2539
      6 N          62.8463   87.0245   12.6621 N.ar    1  UNL1       -0.1948
      7 N          61.8953   88.0141   10.4561 N.ar    1  UNL1       -0.2008
      8 N          61.0427   89.0750    9.8256 N.ar    1  UNL1       -0.1673
      9 C          60.4006   88.4882    8.6036 C.ar    1  UNL1        0.0806
     10 C          59.4667   89.2000    7.6703 C.3     1  UNL1        0.0540
     11 C          60.8564   87.0646    8.4788 C.ar    1  UNL1        0.0313
     12 C          61.7802   86.7716    9.6237 C.ar    1  UNL1        0.0651
     13 C          62.4681   85.4654    9.8895 C.3     1  UNL1        0.0523
     14 C          64.9327   90.9203   13.5104 C.ar    1  UNL1        0.1005
     15 C          65.2833   91.2916   14.9208 C.ar    1  UNL1        0.0208
     16 C          65.9788   92.5902   15.2036 C.ar    1  UNL1        0.0045
     17 C          66.3237   93.5174   14.0761 C.ar    1  UNL1        0.0343
     18 C          65.9731   93.1461   12.6657 C.ar    1  UNL1        0.1318
     19 N          65.2776   91.8474   12.3829 N.ar    1  UNL1       -0.2292
     20 N          66.3179   94.0732   11.5382 N.pl3   1  UNL1       -0.2904
     21 C          66.7857   93.5169   10.2261 C.3     1  UNL1        0.1095
     22 C          67.1306   94.4441    9.0985 C.3     1  UNL1        0.0939
     23 N          67.0077   95.9276    9.2830 N.3     1  UNL1       -0.2686
     24 C          67.3525   96.8548    8.1555 C.3     1  UNL1        0.0897
     25 C          66.5399   96.4839   10.5952 C.3     1  UNL1        0.0939
     26 C          66.1950   95.5568   11.7227 C.3     1  UNL1        0.1095
     27 C          64.1769   83.5040   15.3162 C.3     1  UNL1        0.0950
     28 C          64.0492   84.6481   14.3546 C.2     1  UNL1        0.2277
     29 O          64.1734   84.4055   12.8795 O.2     1  UNL1       -0.2747
     30 N          63.7972   86.0348   14.8680 N.am    1  UNL1       -0.2692
     31 H          63.7157   86.1940   15.8361 H       1  UNL1        0.1563
@<TRIPOS>BOND
     1    27    28    1
     2    28    29    2
     3    28    30   am
     4    30     1    1
     5     1     2   ar
     6     2     3   ar
     7     3    14    1
     8    14    15   ar
     9    15    16   ar
    10    16    17   ar
    11    17    18   ar
    12    18    20    1
    13    20    21    1
    14    21    22    1
    15    22    23    1
    16    23    24    1
    17    23    25    1
    18    25    26    1
    19    18    19   ar
    20     3     4   ar
    21     4     5   ar
    22     5     7    1
    23     7     8   ar
    24     8     9   ar
    25     9    10    1
    26     9    11   ar
    27    11    12   ar
    28    12    13    1
    29     5     6   ar
    30     6     1   ar
    31    19    14   ar
    32    12     7   ar
    33    26    20    1
    34    30    31    1
@<TRIPOS>MOLECULE
*****
 31 34 0 0 0
SMALL
GASTEIGER

@<TRIPOS>ATOM
      1 C          61.6007   87.1326    9.9406 C.ar    1  UNL1        0.1389
      2 C          62.2193   88.2191   10.7692 C.ar    1  UNL1        0.0553
      3 C          62.9709   87.8725   12.0202 C.ar    1  UNL1        0.1048
      4 N          63.1038   86.4394   12.4426 N.ar    1  UNL1       -0.2083
      5 C          62.4851   85.3528   11.6140 C.ar    1  UNL1        0.2539
      6 N          61.7336   85.6995   10.3629 N.ar    1  UNL1       -0.1948
      7 N          62.6180   83.9196   12.0363 N.ar    1  UNL1       -0.2008
      8 N          61.9972   83.2975   13.2519 N.ar    1  UNL1       -0.1673
      9 C          62.3905   81.8504   13.2841 C.ar    1  UNL1        0.0806
     10 C          61.9902   80.8510   14.3286 C.3     1  UNL1        0.0540
     11 C          63.2544   81.5781   12.0884 C.ar    1  UNL1        0.0313
     12 C          63.3949   82.8570   11.3173 C.ar    1  UNL1        0.0651
     13 C          64.1755   83.0408   10.0496 C.3     1  UNL1        0.0523
     14 C          63.5895   88.9591   12.8489 C.ar    1  UNL1        0.1005
     15 C          63.6863   88.8039   14.3377 C.ar    1  UNL1        0.0208
     16 C          64.3050   89.8904   15.1664 C.ar    1  UNL1        0.0045
     17 C          64.8268   91.1322   14.5062 C.ar    1  UNL1        0.0343
     18 C          64.7300   91.2874   13.0174 C.ar    1  UNL1        0.1318
     19 N          64.1113   90.2008   12.1888 N.ar    1  UNL1       -0.2292
     20 N          65.2518   92.5291   12.3573 N.pl3   1  UNL1       -0.2904
     21 C          65.9813   93.5593   13.1675 C.3     1  UNL1        0.1095
     22 C          66.5031   94.8011   12.5074 C.3     1  UNL1        0.0939
     23 N          66.2954   95.0126   11.0370 N.3     1  UNL1       -0.2686
     24 C          66.8172   96.2543   10.3769 C.3     1  UNL1        0.0897
     25 C          65.5658   93.9824   10.2267 C.3     1  UNL1        0.0939
     26 C          65.0440   92.7407   10.8869 C.3     1  UNL1        0.1095
     27 C          59.3070   89.0985    7.3668 C.3     1  UNL1        0.0950
     28 C          60.0585   88.7519    8.6178 C.2     1  UNL1        0.2277
     29 O          60.0194   89.6780    9.7972 O.2     1  UNL1       -0.2747
     30 N          60.8491   87.4792    8.6896 N.am    1  UNL1       -0.2692
     31 H          60.8748   86.8714    7.9155 H       1  UNL1        0.1563
@<TRIPOS>BOND
     1    27    28    1
     2    28    29    2
     3    28    30   am
     4    30     1    1
     5     1     2   ar
     6     2     3   ar
     7     3    14    1
     8    14    15   ar
     9    15    16   ar
    10    16    17   ar
    11    17    18   ar
    12    18    20    1
    13    20    21    1
    14    21    22    1
    15    22    23    1
    16    23    24    1
    17    23    25    1
    18    25    26    1
    19    18    19   ar
    20     3     4   ar
    21     4     5   ar
    22     5     7    1
    23     7     8   ar
    24     8     9   ar
    25     9    10    1
    26     9    11   ar
    27    11    12   ar
    28    12    13    1
    29     5     6   ar
    30     6     1   ar
    31    19    14   ar
    32    12     7   ar
    33    26    20    1
    34    30    31    1
@<TRIPOS>MOLECULE
*****
 31 34 0 0 0
SMALL
GASTEIGER

@<TRIPOS>ATOM
      1 C          63.4657   84.9176   13.1497 C.ar    1  UNL1        0.1389
      2 C          63.8460   86.2109   13.8075 C.ar    1  UNL1        0.0553
      3 C          63.4724   87.5156   13.1686 C.ar    1  UNL1        0.1048
      4 N          62.7186   87.5271   11.8719 N.ar    1  UNL1       -0.2083
      5 C          62.3384   86.2338   11.2140 C.ar    1  UNL1        0.2539
      6 N          62.7119   84.9291   11.8529 N.ar    1  UNL1       -0.1948
      7 N          61.5845   86.2452    9.9172 N.ar    1  UNL1       -0.2008
      8 N          60.2454   86.8786    9.6814 N.ar    1  UNL1       -0.1673
      9 C          59.8706   86.6501    8.2470 C.ar    1  UNL1        0.0806
     10 C          58.6098   87.1147    7.5804 C.3     1  UNL1        0.0540
     11 C          60.9782   85.8754    7.5964 C.ar    1  UNL1        0.0313
     12 C          62.0374   85.6251    8.6286 C.ar    1  UNL1        0.0651
     13 C          63.3236   84.8848    8.4105 C.3     1  UNL1        0.0523
     14 C          63.8527   88.8089   13.8265 C.ar    1  UNL1        0.1005
     15 C          63.6978   88.9698   15.3098 C.ar    1  UNL1        0.0208
     16 C          64.0781   90.2630   15.9678 C.ar    1  UNL1        0.0045
     17 C          64.6132   91.3955   15.1424 C.ar    1  UNL1        0.0343
     18 C          64.7681   91.2347   13.6591 C.ar    1  UNL1        0.1318
     19 N          64.3878   89.9413   13.0012 N.ar    1  UNL1       -0.2292
     20 N          65.3032   92.3671   12.8337 N.pl3   1  UNL1       -0.2904
     21 C          65.0942   92.3766   11.3484 C.3     1  UNL1        0.1095
     22 C          65.6293   93.5091   10.5230 C.3     1  UNL1        0.0939
     23 N          66.3734   94.6319   11.1829 N.3     1  UNL1       -0.2686
     24 C          66.9085   95.7643   10.3576 C.3     1  UNL1        0.0897
     25 C          66.5824   94.6223   12.6683 C.3     1  UNL1        0.0939
     26 C          66.0473   93.4899   13.4937 C.3     1  UNL1        0.1095
     27 C          63.6778   81.0213   13.8730 C.3     1  UNL1        0.0950
     28 C          63.3043   82.3260   13.2341 C.2     1  UNL1        0.2277
     29 O          62.3956   82.3437   12.0408 O.2     1  UNL1       -0.2747
     30 N          63.8393   83.6129   13.7886 N.am    1  UNL1       -0.2692
     31 H          64.4357   83.6013   14.5718 H       1  UNL1        0.1563
@<TRIPOS>BOND
     1    27    28    1
     2    28    29    2
     3    28    30   am
     4    30     1    1
     5     1     2   ar
     6     2     3   ar
     7     3    14    1
     8    14    15   ar
     9    15    16   ar
    10    16    17   ar
    11    17    18   ar
    12    18    20    1
    13    20    21    1
    14    21    22    1
    15    22    23    1
    16    23    24    1
    17    23    25    1
    18    25    26    1
    19    18    19   ar
    20     3     4   ar
    21     4     5   ar
    22     5     7    1
    23     7     8   ar
    24     8     9   ar
    25     9    10    1
    26     9    11   ar
    27    11    12   ar
    28    12    13    1
    29     5     6   ar
    30     6     1   ar
    31    19    14   ar
    32    12     7   ar
    33    26    20    1
    34    30    31    1
@<TRIPOS>MOLECULE
*****
 31 34 0 0 0
SMALL
GASTEIGER

@<TRIPOS>ATOM
      1 C          63.4079   91.0268   11.6405 C.ar    1  UNL1        0.1389
      2 C          63.7875   89.9459   12.6088 C.ar    1  UNL1        0.0553
      3 C          63.2370   88.5608   12.4403 C.ar    1  UNL1        0.1048
      4 N          62.3069   88.2566   11.3035 N.ar    1  UNL1       -0.2083
      5 C          61.9272   89.3375   10.3353 C.ar    1  UNL1        0.2539
      6 N          62.4777   90.7226   10.5038 N.ar    1  UNL1       -0.1948
      7 N          60.9970   89.0333    9.1985 N.ar    1  UNL1       -0.2008
      8 N          60.4338   90.0300    8.2292 N.ar    1  UNL1       -0.1673
      9 C          59.5555   89.2918    7.2631 C.ar    1  UNL1        0.0806
     10 C          58.7910   89.8998    6.1247 C.3     1  UNL1        0.0540
     11 C          59.5758   87.8388    7.6353 C.ar    1  UNL1        0.0313
     12 C          60.4667   87.6791    8.8314 C.ar    1  UNL1        0.0651
     13 C          60.7734   86.3912    9.5366 C.3     1  UNL1        0.0523
     14 C          63.6167   87.4799   13.4086 C.ar    1  UNL1        0.1005
     15 C          64.3391   87.8284   14.6761 C.ar    1  UNL1        0.0208
     16 C          64.7188   86.7476   15.6444 C.ar    1  UNL1        0.0045
     17 C          64.3761   85.3182   15.3451 C.ar    1  UNL1        0.0343
     18 C          63.6537   84.9697   14.0776 C.ar    1  UNL1        0.1318
     19 N          63.2740   86.0506   13.1092 N.ar    1  UNL1       -0.2292
     20 N          63.3111   83.5404   13.7782 N.pl3   1  UNL1       -0.2904
     21 C          62.2850   82.8258   14.6068 C.3     1  UNL1        0.1095
     22 C          61.9423   81.3965   14.3075 C.3     1  UNL1        0.0939
     23 N          62.6257   80.6817   13.1797 N.3     1  UNL1       -0.2686
     24 C          62.2830   79.2524   12.8803 C.3     1  UNL1        0.0897
     25 C          63.6518   81.3963   12.3511 C.3     1  UNL1        0.0939
     26 C          63.9945   82.8256   12.6504 C.3     1  UNL1        0.1095
     27 C          65.8066   94.1728   11.3257 C.3     1  UNL1        0.0950
     28 C          65.2560   92.7877   11.1572 C.2     1  UNL1        0.2277
     29 O          66.0032   91.7783   10.3367 O.2     1  UNL1       -0.2747
     30 N          63.9584   92.4119   11.8090 N.am    1  UNL1       -0.2692
     31 H          63.4681   93.0744   12.3475 H       1  UNL1        0.1563
@<TRIPOS>BOND
     1    27    28    1
     2    28    29    2
     3    28    30   am
     4    30     1    1
     5     1     2   ar
     6     2     3   ar
     7     3    14    1
     8    14    15   ar
     9    15    16   ar
    10    16    17   ar
    11    17    18   ar
    12    18    20    1
    13    20    21    1
    14    21    22    1
    15    22    23    1
    16    23    24    1
    17    23    25    1
    18    25    26    1
    19    18    19   ar
    20     3     4   ar
    21     4     5   ar
    22     5     7    1
    23     7     8   ar
    24     8     9   ar
    25     9    10    1
    26     9    11   ar
    27    11    12   ar
    28    12    13    1
    29     5     6   ar
    30     6     1   ar
    31    19    14   ar
    32    12     7   ar
    33    26    20    1
    34    30    31    1
@<TRIPOS>MOLECULE
*****
 31 34 0 0 0
SMALL
GASTEIGER

@<TRIPOS>ATOM
      1 C          62.3673   85.9152   11.7781 C.ar    1  UNL1        0.1389
      2 C          63.0929   87.0121   12.4994 C.ar    1  UNL1        0.0553
      3 C          62.9965   88.4255   12.0065 C.ar    1  UNL1        0.1048
      4 N          62.1746   88.7421   10.7924 N.ar    1  UNL1       -0.2083
      5 C          61.4491   87.6452   10.0711 C.ar    1  UNL1        0.2539
      6 N          61.5454   86.2317   10.5639 N.ar    1  UNL1       -0.1948
      7 N          60.6271   87.9617    8.8568 N.ar    1  UNL1       -0.2008
      8 N          60.1124   89.3162    8.4691 N.ar    1  UNL1       -0.1673
      9 C          59.3427   89.1710    7.1899 C.ar    1  UNL1        0.0806
     10 C          58.6549   90.2760    6.4444 C.3     1  UNL1        0.0540
     11 C          59.3817   87.7266    6.7870 C.ar    1  UNL1        0.0313
     12 C          60.1755   86.9792    7.8172 C.ar    1  UNL1        0.0651
     13 C          60.4665   85.5078    7.8092 C.3     1  UNL1        0.0523
     14 C          63.7222   89.5224   12.7279 C.ar    1  UNL1        0.1005
     15 C          63.8844   89.4609   14.2178 C.ar    1  UNL1        0.0208
     16 C          64.6100   90.5578   14.9392 C.ar    1  UNL1        0.0045
     17 C          65.1734   91.7162   14.1706 C.ar    1  UNL1        0.0343
     18 C          65.0112   91.7777   12.6807 C.ar    1  UNL1        0.1318
     19 N          64.2856   90.6808   11.9593 N.ar    1  UNL1       -0.2292
     20 N          65.5746   92.9361   11.9121 N.pl3   1  UNL1       -0.2904
     21 C          65.7525   92.8348   10.4262 C.3     1  UNL1        0.1095
     22 C          66.3159   93.9932    9.6575 C.3     1  UNL1        0.0939
     23 N          66.7014   95.2529   10.3749 N.3     1  UNL1       -0.2686
     24 C          67.2648   96.4112    9.6063 C.3     1  UNL1        0.0897
     25 C          66.5234   95.3541   11.8609 C.3     1  UNL1        0.0939
     26 C          65.9601   94.1958   12.6295 C.3     1  UNL1        0.1095
     27 C          62.7771   82.8159   14.2227 C.3     1  UNL1        0.0950
     28 C          62.6808   84.2293   13.7299 C.2     1  UNL1        0.2277
     29 O          62.8016   85.3704   14.6961 O.2     1  UNL1       -0.2747
     30 N          62.4637   84.5017   12.2709 N.am    1  UNL1       -0.2692
     31 H          62.3844   83.7528   11.6368 H       1  UNL1        0.1563
@<TRIPOS>BOND
     1    27    28    1
     2    28    29    2
     3    28    30   am
     4    30     1    1
     5     1     2   ar
     6     2     3   ar
     7     3    14    1
     8    14    15   ar
     9    15    16   ar
    10    16    17   ar
    11    17    18   ar
    12    18    20    1
    13    20    21    1
    14    21    22    1
    15    22    23    1
    16    23    24    1
    17    23    25    1
    18    25    26    1
    19    18    19   ar
    20     3     4   ar
    21     4     5   ar
    22     5     7    1
    23     7     8   ar
    24     8     9   ar
    25     9    10    1
    26     9    11   ar
    27    11    12   ar
    28    12    13    1
    29     5     6   ar
    30     6     1   ar
    31    19    14   ar
    32    12     7   ar
    33    26    20    1
    34    30    31    1
@<TRIPOS>MOLECULE
*****
 31 34 0 0 0
SMALL
GASTEIGER

@<TRIPOS>ATOM
      1 C          60.8912   87.5775   10.6060 C.ar    1  UNL1        0.1389
      2 C          61.6486   88.8720   10.6326 C.ar    1  UNL1        0.0553
      3 C          62.8800   89.0031   11.4790 C.ar    1  UNL1        0.1048
      4 N          63.3540   87.8399   12.2988 N.ar    1  UNL1       -0.2083
      5 C          62.5967   86.5454   12.2722 C.ar    1  UNL1        0.2539
      6 N          61.3652   86.4143   11.4258 N.ar    1  UNL1       -0.1948
      7 N          63.0707   85.3821   13.0919 N.ar    1  UNL1       -0.2008
      8 N          62.7598   83.9373   12.8348 N.ar    1  UNL1       -0.1673
      9 C          63.4358   83.1216   13.8966 C.ar    1  UNL1        0.0806
     10 C          63.3910   81.6276   14.0229 C.3     1  UNL1        0.0540
     11 C          64.1644   84.0622   14.8101 C.ar    1  UNL1        0.0313
     12 C          63.9388   85.4592   14.3128 C.ar    1  UNL1        0.0651
     13 C          64.4853   86.7132   14.9283 C.3     1  UNL1        0.0523
     14 C          63.6374   90.2977   11.5056 C.ar    1  UNL1        0.1005
     15 C          63.3815   91.3380   10.4557 C.ar    1  UNL1        0.0208
     16 C          64.1389   92.6324   10.4822 C.ar    1  UNL1        0.0045
     17 C          65.1521   92.8866   11.5587 C.ar    1  UNL1        0.0343
     18 C          65.4080   91.8463   12.6086 C.ar    1  UNL1        0.1318
     19 N          64.6506   90.5518   12.5820 N.ar    1  UNL1       -0.2292
     20 N          66.4212   92.1005   13.6851 N.pl3   1  UNL1       -0.2904
     21 C          65.9726   92.5240   15.0523 C.3     1  UNL1        0.1095
     22 C          66.9858   92.7782   16.1289 C.3     1  UNL1        0.0939
     23 N          68.4476   92.6089   15.8380 N.3     1  UNL1       -0.2686
     24 C          69.4608   92.8630   16.9145 C.3     1  UNL1        0.0897
     25 C          68.8962   92.1854   14.4707 C.3     1  UNL1        0.0939
     26 C          67.8830   91.9312   13.3943 C.3     1  UNL1        0.1095
     27 C          58.4957   86.5992    7.5969 C.3     1  UNL1        0.0950
     28 C          59.7271   86.7304    8.4433 C.2     1  UNL1        0.2277
     29 O          61.0261   86.1455    7.9733 O.2     1  UNL1       -0.2747
     30 N          59.6597   87.4464    9.7597 N.am    1  UNL1       -0.2692
     31 H          58.8072   87.8302   10.0681 H       1  UNL1        0.1563
@<TRIPOS>BOND
     1    27    28    1
     2    28    29    2
     3    28    30   am
     4    30     1    1
     5     1     2   ar
     6     2     3   ar
     7     3    14    1
     8    14    15   ar
     9    15    16   ar
    10    16    17   ar
    11    17    18   ar
    12    18    20    1
    13    20    21    1
    14    21    22    1
    15    22    23    1
    16    23    24    1
    17    23    25    1
    18    25    26    1
    19    18    19   ar
    20     3     4   ar
    21     4     5   ar
    22     5     7    1
    23     7     8   ar
    24     8     9   ar
    25     9    10    1
    26     9    11   ar
    27    11    12   ar
    28    12    13    1
    29     5     6   ar
    30     6     1   ar
    31    19    14   ar
    32    12     7   ar
    33    26    20    1
    34    30    31    1
