@<TRIPOS>MOLECULE
*****
 28 29 0 0 0
SMALL
GASTEIGER

@<TRIPOS>ATOM
      1 C          65.1020   92.0638   12.6379 C.ar    1  UNL1        0.1425
      2 C          63.9236   91.2139   12.2655 C.ar    1  UNL1        0.0368
      3 C          63.5592   90.0268   13.1070 C.ar    1  UNL1        0.0031
      4 C          64.3732   89.6897   14.3209 C.ar    1  UNL1        0.0003
      5 C          65.5517   90.5397   14.6933 C.ar    1  UNL1        0.0069
      6 C          65.9161   91.7268   13.8518 C.ar    1  UNL1        0.1053
      7 C          64.0088   88.5027   15.1624 C.ar    1  UNL1        0.0054
      8 C          63.2290   88.6927   16.4296 C.ar    1  UNL1        0.0208
      9 C          62.8646   87.5056   17.2711 C.ar    1  UNL1        0.1013
     10 N          63.2800   86.1286   16.8455 N.ar    1  UNL1       -0.2165
     11 C          64.0599   85.9387   15.5783 C.ar    1  UNL1        0.2223
     12 F          64.4754   84.5616   15.1526 F       1  UNL1       -0.1832
     13 C          64.4243   87.1257   14.7368 C.ar    1  UNL1        0.0497
     14 C          67.0947   92.5767   14.2243 C.3     1  UNL1        0.4214
     15 F          68.2732   93.4266   14.5967 F       1  UNL1       -0.1657
     16 F          67.9681   91.7638   13.3154 F       1  UNL1       -0.1657
     17 F          66.2212   93.3897   15.1332 F       1  UNL1       -0.1657
     18 O          65.4664   93.2509   11.7964 O.3     1  UNL1       -0.4741
     19 C          65.9628   93.0527   10.3949 C.3     1  UNL1        0.2192
     20 C          67.3461   93.4949   10.0196 C.3     1  UNL1        0.0798
     21 C          67.6920   92.0869    9.6353 C.3     1  UNL1        0.0193
     22 N          68.7294   93.9372    9.6443 N.3     1  UNL1       -0.3203
     23 H          69.3237   93.1189    9.5115 H       1  UNL1        0.1189
     24 H          69.1139   94.5194   10.3884 H       1  UNL1        0.1189
     25 C          67.0003   94.9030   10.4039 C.3     1  UNL1        0.0179
     26 C          65.0421   96.5422    9.9261 C.3     1  UNL1        0.0000
     27 C          66.2402   95.7757    9.4497 C.3     1  UNL1        0.0014
     28 C          66.6782   95.8820    8.0190 C.3     1  UNL1        0.0000
@<TRIPOS>BOND
     1    26    27    1
     2    27    28    1
     3    27    25    1
     4    25    20    1
     5    20    21    1
     6    20    22    1
     7    20    19    1
     8    19    18    1
     9    18     1    1
    10     1     2   ar
    11     2     3   ar
    12     3     4   ar
    13     4     7    1
    14     7     8   ar
    15     8     9   ar
    16     9    10   ar
    17    10    11   ar
    18    11    12    1
    19    11    13   ar
    20     4     5   ar
    21     5     6   ar
    22     6    14    1
    23    14    15    1
    24    14    16    1
    25    14    17    1
    26     6     1   ar
    27    13     7   ar
    28    22    23    1
    29    22    24    1
@<TRIPOS>MOLECULE
*****
 28 29 0 0 0
SMALL
GASTEIGER

@<TRIPOS>ATOM
      1 C          64.0228   90.9998   12.5432 C.ar    1  UNL1        0.1425
      2 C          63.7883   91.4545   11.1332 C.ar    1  UNL1        0.0368
      3 C          63.0067   90.5918   10.1872 C.ar    1  UNL1        0.0031
      4 C          62.4596   89.2745   10.6512 C.ar    1  UNL1        0.0003
      5 C          62.6941   88.8199   12.0612 C.ar    1  UNL1        0.0069
      6 C          63.4757   89.6826   13.0073 C.ar    1  UNL1        0.1053
      7 C          61.6781   88.4118    9.7051 C.ar    1  UNL1        0.0054
      8 C          62.0671   86.9774    9.5026 C.ar    1  UNL1        0.0208
      9 C          61.2856   86.1148    8.5565 C.ar    1  UNL1        0.1013
     10 N          60.1150   86.6865    7.8131 N.ar    1  UNL1       -0.2165
     11 C          59.7259   88.1209    8.0156 C.ar    1  UNL1        0.2223
     12 F          58.5553   88.6927    7.2722 F       1  UNL1       -0.1832
     13 C          60.5075   88.9836    8.9617 C.ar    1  UNL1        0.0497
     14 C          63.7101   89.2279   14.4174 C.3     1  UNL1        0.4214
     15 F          63.9445   88.7732   15.8274 F       1  UNL1       -0.1657
     16 F          62.8645   90.3590   14.9227 F       1  UNL1       -0.1657
     17 F          64.5557   88.0967   13.9121 F       1  UNL1       -0.1657
     18 O          64.8043   91.8625   13.4893 O.3     1  UNL1       -0.4741
     19 C          65.9176   92.7248   12.9725 C.3     1  UNL1        0.2192
     20 C          67.2933   92.1515   12.8027 C.3     1  UNL1        0.0798
     21 C          67.3412   92.6818   11.4004 C.3     1  UNL1        0.0193
     22 N          68.6690   91.5782   12.6329 N.3     1  UNL1       -0.3203
     23 H          68.9287   91.6040   11.6468 H       1  UNL1        0.1189
     24 H          68.6780   90.6128   12.9618 H       1  UNL1        0.1189
     25 C          67.2454   91.6212   14.2050 C.3     1  UNL1        0.0179
     26 C          66.4500   92.7075   16.4269 C.3     1  UNL1        0.0000
     27 C          67.4946   92.5407   15.3635 C.3     1  UNL1        0.0014
     28 C          68.7886   93.2935   15.4587 C.3     1  UNL1        0.0000
@<TRIPOS>BOND
     1    26    27    1
     2    27    28    1
     3    27    25    1
     4    25    20    1
     5    20    21    1
     6    20    22    1
     7    20    19    1
     8    19    18    1
     9    18     1    1
    10     1     2   ar
    11     2     3   ar
    12     3     4   ar
    13     4     7    1
    14     7     8   ar
    15     8     9   ar
    16     9    10   ar
    17    10    11   ar
    18    11    12    1
    19    11    13   ar
    20     4     5   ar
    21     5     6   ar
    22     6    14    1
    23    14    15    1
    24    14    16    1
    25    14    17    1
    26     6     1   ar
    27    13     7   ar
    28    22    23    1
    29    22    24    1
@<TRIPOS>MOLECULE
*****
 28 29 0 0 0
SMALL
GASTEIGER

@<TRIPOS>ATOM
      1 C          63.7879   91.0077   12.1581 C.ar    1  UNL1        0.1425
      2 C          63.4634   91.3308   10.7298 C.ar    1  UNL1        0.0368
      3 C          62.7363   90.3303    9.8810 C.ar    1  UNL1        0.0031
      4 C          62.3338   89.0067   10.4605 C.ar    1  UNL1        0.0003
      5 C          62.6583   88.6836   11.8889 C.ar    1  UNL1        0.0069
      6 C          63.3853   89.6840   12.7377 C.ar    1  UNL1        0.1053
      7 C          61.6068   88.0062    9.6117 C.ar    1  UNL1        0.0054
      8 C          60.1327   88.1527    9.3763 C.ar    1  UNL1        0.0208
      9 C          59.4056   87.1523    8.5275 C.ar    1  UNL1        0.1013
     10 N          60.1527   86.0053    7.9141 N.ar    1  UNL1       -0.2165
     11 C          61.6268   85.8588    8.1496 C.ar    1  UNL1        0.2223
     12 F          62.3740   84.7117    7.5362 F       1  UNL1       -0.1832
     13 C          62.3538   86.8592    8.9984 C.ar    1  UNL1        0.0497
     14 C          63.7098   89.3608   14.1661 C.3     1  UNL1        0.4214
     15 F          64.0343   89.0377   15.5945 F       1  UNL1       -0.1657
     16 F          62.8983   90.5390   14.6170 F       1  UNL1       -0.1657
     17 F          64.5213   88.1827   13.7152 F       1  UNL1       -0.1657
     18 O          64.5149   92.0082   13.0069 O.3     1  UNL1       -0.4741
     19 C          65.5739   92.8791   12.3987 C.3     1  UNL1        0.2192
     20 C          66.9954   92.4034   12.3430 C.3     1  UNL1        0.0798
     21 C          67.1244   92.6159   13.8223 C.3     1  UNL1        0.0193
     22 N          68.4169   91.9278   12.2874 N.3     1  UNL1       -0.3203
     23 H          68.8834   92.1468   13.1676 H       1  UNL1        0.1189
     24 H          68.9016   92.3940   11.5205 H       1  UNL1        0.1189
     25 C          66.8664   92.1910   10.8638 C.3     1  UNL1        0.0179
     26 C          67.3956   94.5402    9.8887 C.3     1  UNL1        0.0000
     27 C          67.6338   93.0594    9.9116 C.3     1  UNL1        0.0014
     28 C          68.6396   92.4471    8.9822 C.3     1  UNL1        0.0000
@<TRIPOS>BOND
     1    26    27    1
     2    27    28    1
     3    27    25    1
     4    25    20    1
     5    20    21    1
     6    20    22    1
     7    20    19    1
     8    19    18    1
     9    18     1    1
    10     1     2   ar
    11     2     3   ar
    12     3     4   ar
    13     4     7    1
    14     7     8   ar
    15     8     9   ar
    16     9    10   ar
    17    10    11   ar
    18    11    12    1
    19    11    13   ar
    20     4     5   ar
    21     5     6   ar
    22     6    14    1
    23    14    15    1
    24    14    16    1
    25    14    17    1
    26     6     1   ar
    27    13     7   ar
    28    22    23    1
    29    22    24    1
@<TRIPOS>MOLECULE
*****
 28 29 0 0 0
SMALL
GASTEIGER

@<TRIPOS>ATOM
      1 C          62.4696   90.0639   11.7688 C.ar    1  UNL1        0.1425
      2 C          62.4282   90.7790   10.4509 C.ar    1  UNL1        0.0368
      3 C          63.5393   91.7112   10.0682 C.ar    1  UNL1        0.0031
      4 C          64.6917   91.9284   11.0034 C.ar    1  UNL1        0.0003
      5 C          64.7331   91.2133   12.3213 C.ar    1  UNL1        0.0069
      6 C          63.6220   90.2811   12.7040 C.ar    1  UNL1        0.1053
      7 C          65.8028   92.8606   10.6207 C.ar    1  UNL1        0.0054
      8 C          65.6124   94.3436   10.7406 C.ar    1  UNL1        0.0208
      9 C          66.7234   95.2759   10.3579 C.ar    1  UNL1        0.1013
     10 N          68.0249   94.7251    9.8552 N.ar    1  UNL1       -0.2165
     11 C          68.2154   93.2421    9.7353 C.ar    1  UNL1        0.2223
     12 F          69.5169   92.6913    9.2326 F       1  UNL1       -0.1832
     13 C          67.1043   92.3099   10.1180 C.ar    1  UNL1        0.0497
     14 C          63.6635   89.5660   14.0219 C.3     1  UNL1        0.4214
     15 F          63.7049   88.8510   15.3399 F       1  UNL1       -0.1657
     16 F          63.3063   90.8418   14.7253 F       1  UNL1       -0.1657
     17 F          64.0206   88.2902   13.3186 F       1  UNL1       -0.1657
     18 O          61.3585   89.1317   12.1515 O.3     1  UNL1       -0.4741
     19 C          60.5599   88.4397   11.0869 C.3     1  UNL1        0.2192
     20 C          61.2224   87.4467   10.1786 C.3     1  UNL1        0.0798
     21 C          61.4853   86.5493   11.3514 C.3     1  UNL1        0.0193
     22 N          61.8850   86.4538    9.2702 N.3     1  UNL1       -0.3203
     23 H          62.3816   85.7601    9.8293 H       1  UNL1        0.1189
     24 H          62.5462   86.9373    8.6625 H       1  UNL1        0.1189
     25 C          60.9595   88.3442    9.0058 C.3     1  UNL1        0.0179
     26 C          59.0182   86.8010    8.2315 C.3     1  UNL1        0.0000
     27 C          59.7814   88.0869    8.1137 C.3     1  UNL1        0.0014
     28 C          59.3665   89.1156    7.1038 C.3     1  UNL1        0.0000
@<TRIPOS>BOND
     1    26    27    1
     2    27    28    1
     3    27    25    1
     4    25    20    1
     5    20    21    1
     6    20    22    1
     7    20    19    1
     8    19    18    1
     9    18     1    1
    10     1     2   ar
    11     2     3   ar
    12     3     4   ar
    13     4     7    1
    14     7     8   ar
    15     8     9   ar
    16     9    10   ar
    17    10    11   ar
    18    11    12    1
    19    11    13   ar
    20     4     5   ar
    21     5     6   ar
    22     6    14    1
    23    14    15    1
    24    14    16    1
    25    14    17    1
    26     6     1   ar
    27    13     7   ar
    28    22    23    1
    29    22    24    1
@<TRIPOS>MOLECULE
*****
 28 29 0 0 0
SMALL
GASTEIGER

@<TRIPOS>ATOM
      1 C          63.2315   86.1173   12.7926 C.ar    1  UNL1        0.1425
      2 C          62.9759   87.4122   12.0800 C.ar    1  UNL1        0.0368
      3 C          63.4009   88.7083   12.7040 C.ar    1  UNL1        0.0031
      4 C          64.0815   88.7096   14.0406 C.ar    1  UNL1        0.0003
      5 C          64.3371   87.4148   14.7533 C.ar    1  UNL1        0.0069
      6 C          63.9121   86.1186   14.1293 C.ar    1  UNL1        0.1053
      7 C          64.5065   90.0058   14.6646 C.ar    1  UNL1        0.0054
      8 C          63.7982   90.5194   15.8830 C.ar    1  UNL1        0.0208
      9 C          64.2232   91.8156   16.5070 C.ar    1  UNL1        0.1013
     10 N          65.3565   92.5981   15.9126 N.ar    1  UNL1       -0.2165
     11 C          66.0648   92.0844   14.6942 C.ar    1  UNL1        0.2223
     12 F          67.1981   92.8670   14.0998 F       1  UNL1       -0.1832
     13 C          65.6398   90.7883   14.0703 C.ar    1  UNL1        0.0497
     14 C          64.1678   84.8237   14.8420 C.3     1  UNL1        0.4214
     15 F          64.4235   83.5289   15.5547 F       1  UNL1       -0.1657
     16 F          65.6014   84.8649   14.4025 F       1  UNL1       -0.1657
     17 F          62.7343   84.7825   15.2816 F       1  UNL1       -0.1657
     18 O          62.8065   84.8212   12.1687 O.3     1  UNL1       -0.4741
     19 C          63.8374   83.8773   11.6243 C.3     1  UNL1        0.2192
     20 C          63.4343   82.5038   11.1760 C.3     1  UNL1        0.0798
     21 C          64.4979   82.5367   10.1188 C.3     1  UNL1        0.0193
     22 N          63.0312   81.1302   10.7277 N.3     1  UNL1       -0.3203
     23 H          63.4711   80.9224    9.8312 H       1  UNL1        0.1189
     24 H          62.0171   81.0896   10.6264 H       1  UNL1        0.1189
     25 C          62.3707   82.4708   12.2332 C.3     1  UNL1        0.0179
     26 C          63.7741   80.9398   13.7941 C.3     1  UNL1        0.0000
     27 C          62.4427   81.4591   13.3383 C.3     1  UNL1        0.0014
     28 C          61.1834   80.9666   13.9876 C.3     1  UNL1        0.0000
@<TRIPOS>BOND
     1    26    27    1
     2    27    28    1
     3    27    25    1
     4    25    20    1
     5    20    21    1
     6    20    22    1
     7    20    19    1
     8    19    18    1
     9    18     1    1
    10     1     2   ar
    11     2     3   ar
    12     3     4   ar
    13     4     7    1
    14     7     8   ar
    15     8     9   ar
    16     9    10   ar
    17    10    11   ar
    18    11    12    1
    19    11    13   ar
    20     4     5   ar
    21     5     6   ar
    22     6    14    1
    23    14    15    1
    24    14    16    1
    25    14    17    1
    26     6     1   ar
    27    13     7   ar
    28    22    23    1
    29    22    24    1
@<TRIPOS>MOLECULE
*****
 28 29 0 0 0
SMALL
GASTEIGER

@<TRIPOS>ATOM
      1 C          62.8282   86.8440   11.9995 C.ar    1  UNL1        0.1425
      2 C          63.6250   86.6021   13.2471 C.ar    1  UNL1        0.0368
      3 C          64.1562   87.7630   14.0346 C.ar    1  UNL1        0.0031
      4 C          63.8905   89.1658   13.5746 C.ar    1  UNL1        0.0003
      5 C          63.0936   89.4076   12.3270 C.ar    1  UNL1        0.0069
      6 C          62.5625   88.2467   11.5395 C.ar    1  UNL1        0.1053
      7 C          64.4216   90.3267   14.3621 C.ar    1  UNL1        0.0054
      8 C          63.8470   90.6437   15.7109 C.ar    1  UNL1        0.0208
      9 C          64.3782   91.8046   16.4984 C.ar    1  UNL1        0.1013
     10 N          65.4839   92.6485   15.9371 N.ar    1  UNL1       -0.2165
     11 C          66.0586   92.3315   14.5883 C.ar    1  UNL1        0.2223
     12 F          67.1644   93.1754   14.0270 F       1  UNL1       -0.1832
     13 C          65.5274   91.1706   13.8008 C.ar    1  UNL1        0.0497
     14 C          61.7656   88.4886   10.2918 C.3     1  UNL1        0.4214
     15 F          60.9688   88.7305    9.0442 F       1  UNL1       -0.1657
     16 F          62.9291   88.0352    9.4608 F       1  UNL1       -0.1657
     17 F          60.6020   88.9420   11.1229 F       1  UNL1       -0.1657
     18 O          62.2970   85.6831   11.2120 O.3     1  UNL1       -0.4741
     19 C          62.5072   84.2826   11.7063 C.3     1  UNL1        0.2192
     20 C          63.7220   83.5118   11.2819 C.3     1  UNL1        0.0798
     21 C          63.5568   84.0225    9.8812 C.3     1  UNL1        0.0193
     22 N          64.9369   82.7411   10.8575 N.3     1  UNL1       -0.3203
     23 H          64.9897   82.7235    9.8390 H       1  UNL1        0.1189
     24 H          64.8746   81.7865   11.2113 H       1  UNL1        0.1189
     25 C          63.8873   83.0011   12.6825 C.3     1  UNL1        0.0179
     26 C          62.7446   80.6740   12.5140 C.3     1  UNL1        0.0000
     27 C          62.9319   81.9806   13.2264 C.3     1  UNL1        0.0014
     28 C          62.1639   82.2668   14.4827 C.3     1  UNL1        0.0000
@<TRIPOS>BOND
     1    26    27    1
     2    27    28    1
     3    27    25    1
     4    25    20    1
     5    20    21    1
     6    20    22    1
     7    20    19    1
     8    19    18    1
     9    18     1    1
    10     1     2   ar
    11     2     3   ar
    12     3     4   ar
    13     4     7    1
    14     7     8   ar
    15     8     9   ar
    16     9    10   ar
    17    10    11   ar
    18    11    12    1
    19    11    13   ar
    20     4     5   ar
    21     5     6   ar
    22     6    14    1
    23    14    15    1
    24    14    16    1
    25    14    17    1
    26     6     1   ar
    27    13     7   ar
    28    22    23    1
    29    22    24    1
@<TRIPOS>MOLECULE
*****
 28 29 0 0 0
SMALL
GASTEIGER

@<TRIPOS>ATOM
      1 C          63.9349   90.3887   13.3219 C.ar    1  UNL1        0.1425
      2 C          64.6066   89.6902   14.4668 C.ar    1  UNL1        0.0368
      3 C          64.5338   88.1963   14.5807 C.ar    1  UNL1        0.0031
      4 C          63.7892   87.4009   13.5497 C.ar    1  UNL1        0.0003
      5 C          63.1174   88.0994   12.4049 C.ar    1  UNL1        0.0069
      6 C          63.1903   89.5933   12.2910 C.ar    1  UNL1        0.1053
      7 C          63.7164   85.9070   13.6637 C.ar    1  UNL1        0.0054
      8 C          64.3210   85.2149   14.8491 C.ar    1  UNL1        0.0208
      9 C          64.2482   83.7210   14.9630 C.ar    1  UNL1        0.1013
     10 N          63.5708   82.9192   13.8915 N.ar    1  UNL1       -0.2165
     11 C          62.9661   83.6114   12.7061 C.ar    1  UNL1        0.2223
     12 F          62.2886   82.8096   11.6345 F       1  UNL1       -0.1832
     13 C          63.0389   85.1053   12.5921 C.ar    1  UNL1        0.0497
     14 C          62.5184   90.2918   11.1460 C.3     1  UNL1        0.4214
     15 F          61.8466   90.9903   10.0012 F       1  UNL1       -0.1657
     16 F          61.2197   90.2720   11.8961 F       1  UNL1       -0.1657
     17 F          63.8172   90.3116   10.3959 F       1  UNL1       -0.1657
     18 O          64.0077   91.8826   13.2080 O.3     1  UNL1       -0.4741
     19 C          65.0070   92.5167   12.2865 C.3     1  UNL1        0.2192
     20 C          66.4713   92.4444   12.6038 C.3     1  UNL1        0.0798
     21 C          66.1938   92.9322   13.9949 C.3     1  UNL1        0.0193
     22 N          67.9355   92.3721   12.9212 N.3     1  UNL1       -0.3203
     23 H          68.1172   92.8563   13.8004 H       1  UNL1        0.1189
     24 H          68.4680   92.8155   12.1726 H       1  UNL1        0.1189
     25 C          66.7487   91.9567   11.2127 C.3     1  UNL1        0.0179
     26 C          66.9480   94.2823   10.0720 C.3     1  UNL1        0.0000
     27 C          67.4114   92.8632   10.2183 C.3     1  UNL1        0.0014
     28 C          68.5375   92.3507    9.3702 C.3     1  UNL1        0.0000
@<TRIPOS>BOND
     1    26    27    1
     2    27    28    1
     3    27    25    1
     4    25    20    1
     5    20    21    1
     6    20    22    1
     7    20    19    1
     8    19    18    1
     9    18     1    1
    10     1     2   ar
    11     2     3   ar
    12     3     4   ar
    13     4     7    1
    14     7     8   ar
    15     8     9   ar
    16     9    10   ar
    17    10    11   ar
    18    11    12    1
    19    11    13   ar
    20     4     5   ar
    21     5     6   ar
    22     6    14    1
    23    14    15    1
    24    14    16    1
    25    14    17    1
    26     6     1   ar
    27    13     7   ar
    28    22    23    1
    29    22    24    1
@<TRIPOS>MOLECULE
*****
 28 29 0 0 0
SMALL
GASTEIGER

@<TRIPOS>ATOM
      1 C          64.1112   90.1224   13.8343 C.ar    1  UNL1        0.1425
      2 C          65.2719   90.9084   14.3680 C.ar    1  UNL1        0.0368
      3 C          65.9320   91.9471   13.5105 C.ar    1  UNL1        0.0031
      4 C          65.4314   92.1999   12.1193 C.ar    1  UNL1        0.0003
      5 C          64.2707   91.4139   11.5856 C.ar    1  UNL1        0.0069
      6 C          63.6106   90.3752   12.4431 C.ar    1  UNL1        0.1053
      7 C          66.0915   93.2386   11.2619 C.ar    1  UNL1        0.0054
      8 C          65.9713   94.6911   11.6168 C.ar    1  UNL1        0.0208
      9 C          66.6314   95.7298   10.7593 C.ar    1  UNL1        0.1013
     10 N          67.4117   95.3161    9.5469 N.ar    1  UNL1       -0.2165
     11 C          67.5319   93.8637    9.1920 C.ar    1  UNL1        0.2223
     12 F          68.3122   93.4500    7.9795 F       1  UNL1       -0.1832
     13 C          66.8718   92.8250   10.0495 C.ar    1  UNL1        0.0497
     14 C          62.4497   89.5892   11.9094 C.3     1  UNL1        0.4214
     15 F          61.2890   88.8033   11.3756 F       1  UNL1       -0.1657
     16 F          61.6218   90.8393   11.8691 F       1  UNL1       -0.1657
     17 F          63.2777   88.3391   11.9496 F       1  UNL1       -0.1657
     18 O          63.4511   89.0837   14.6918 O.3     1  UNL1       -0.4741
     19 C          64.1874   87.8261   15.0472 C.3     1  UNL1        0.2192
     20 C          63.6474   86.9157   16.1100 C.3     1  UNL1        0.0798
     21 C          63.0340   88.0936   16.8073 C.3     1  UNL1        0.0193
     22 N          63.1074   86.0053   17.1728 N.3     1  UNL1       -0.3203
     23 H          62.7742   86.5618   17.9601 H       1  UNL1        0.1189
     24 H          63.8456   85.3766   17.4892 H       1  UNL1        0.1189
     25 C          64.2608   85.7378   15.4127 C.3     1  UNL1        0.0179
     26 C          62.7208   83.6654   15.1236 C.3     1  UNL1        0.0000
     27 C          63.4151   84.8596   14.5389 C.3     1  UNL1        0.0014
     28 C          63.2635   85.1756   13.0804 C.3     1  UNL1        0.0000
@<TRIPOS>BOND
     1    26    27    1
     2    27    28    1
     3    27    25    1
     4    25    20    1
     5    20    21    1
     6    20    22    1
     7    20    19    1
     8    19    18    1
     9    18     1    1
    10     1     2   ar
    11     2     3   ar
    12     3     4   ar
    13     4     7    1
    14     7     8   ar
    15     8     9   ar
    16     9    10   ar
    17    10    11   ar
    18    11    12    1
    19    11    13   ar
    20     4     5   ar
    21     5     6   ar
    22     6    14    1
    23    14    15    1
    24    14    16    1
    25    14    17    1
    26     6     1   ar
    27    13     7   ar
    28    22    23    1
    29    22    24    1
@<TRIPOS>MOLECULE
*****
 28 29 0 0 0
SMALL
GASTEIGER

@<TRIPOS>ATOM
      1 C          63.9415   90.1416   13.4219 C.ar    1  UNL1        0.1425
      2 C          64.5918   89.4207   14.5653 C.ar    1  UNL1        0.0368
      3 C          64.5039   87.9261   14.6570 C.ar    1  UNL1        0.0031
      4 C          63.7657   87.1523   13.6052 C.ar    1  UNL1        0.0003
      5 C          63.1153   87.8732   12.4619 C.ar    1  UNL1        0.0069
      6 C          63.2032   89.3678   12.3702 C.ar    1  UNL1        0.1053
      7 C          63.6777   85.6577   13.6969 C.ar    1  UNL1        0.0054
      8 C          64.2213   84.9469   14.9007 C.ar    1  UNL1        0.0208
      9 C          64.1334   83.4523   14.9924 C.ar    1  UNL1        0.1013
     10 N          63.5019   82.6685   13.8802 N.ar    1  UNL1       -0.2165
     11 C          62.9583   83.3793   12.6764 C.ar    1  UNL1        0.2223
     12 F          62.3268   82.5956   11.5642 F       1  UNL1       -0.1832
     13 C          63.0463   84.8740   12.5848 C.ar    1  UNL1        0.0497
     14 C          62.5528   90.0886   11.2267 C.3     1  UNL1        0.4214
     15 F          61.9024   90.8094   10.0833 F       1  UNL1       -0.1657
     16 F          61.2092   89.8816   11.8605 F       1  UNL1       -0.1657
     17 F          63.8965   90.2956   10.5929 F       1  UNL1       -0.1657
     18 O          64.0294   91.6362   13.3303 O.3     1  UNL1       -0.4741
     19 C          65.2704   92.3439   13.7874 C.3     1  UNL1        0.2192
     20 C          66.4885   92.3629   12.9123 C.3     1  UNL1        0.0798
     21 C          65.6953   93.0209   11.8224 C.3     1  UNL1        0.0193
     22 N          67.7066   92.3819   12.0372 N.3     1  UNL1       -0.3203
     23 H          67.4351   92.6125   11.0814 H       1  UNL1        0.1189
     24 H          68.1505   91.4636   12.0523 H       1  UNL1        0.1189
     25 C          67.2817   91.7049   14.0022 C.3     1  UNL1        0.0179
     26 C          66.7261   92.6622   16.3526 C.3     1  UNL1        0.0000
     27 C          67.6871   92.4907   15.2138 C.3     1  UNL1        0.0014
     28 C          69.0537   93.1050   15.2866 C.3     1  UNL1        0.0000
@<TRIPOS>BOND
     1    26    27    1
     2    27    28    1
     3    27    25    1
     4    25    20    1
     5    20    21    1
     6    20    22    1
     7    20    19    1
     8    19    18    1
     9    18     1    1
    10     1     2   ar
    11     2     3   ar
    12     3     4   ar
    13     4     7    1
    14     7     8   ar
    15     8     9   ar
    16     9    10   ar
    17    10    11   ar
    18    11    12    1
    19    11    13   ar
    20     4     5   ar
    21     5     6   ar
    22     6    14    1
    23    14    15    1
    24    14    16    1
    25    14    17    1
    26     6     1   ar
    27    13     7   ar
    28    22    23    1
    29    22    24    1
