@<TRIPOS>MOLECULE
*****
 37 39 0 0 0
SMALL
GASTEIGER

@<TRIPOS>ATOM
      1 C          62.7272   89.3972   10.9095 C.3     1  UNL1        0.1194
      2 C          62.5327   90.5472    9.9663 C.3     1  UNL1        0.0802
      3 N          63.1230   91.8883   10.2870 N.3     1  UNL1       -0.2965
      4 C          63.9079   92.0795   11.5508 C.3     1  UNL1        0.0802
      5 C          64.1024   90.9295   12.4940 C.3     1  UNL1        0.1200
      6 C          63.5121   89.5883   12.1733 C.3     1  UNL1        0.1303
      7 O          63.7067   88.4383   13.1166 O.3     1  UNL1       -0.3834
      8 H          62.3483   92.5511   10.3184 H       1  UNL1        0.1233
      9 H          64.2327   88.7298   13.8776 H       1  UNL1        0.2104
     10 N          62.5237   87.3495    9.3234 N.am    1  UNL1       -0.3034
     11 C          62.1369   88.0560   10.5888 C.2     1  UNL1        0.2258
     12 O          61.1598   87.4214   11.5334 O.2     1  UNL1       -0.2750
     13 H          63.1650   87.7660    8.7033 H       1  UNL1        0.1495
     14 C          61.9333   86.0084    9.0027 C.3     1  UNL1        0.1011
     15 C          60.4650   85.8827    8.7229 C.3     1  UNL1        0.1615
     16 O          59.8656   86.5770    7.5360 O.3     1  UNL1       -0.3520
     17 C          59.7980   89.1696    7.6903 C.3     1  UNL1        0.0346
     18 C          59.0903   87.8474    7.7228 C.3     1  UNL1        0.1423
     19 C          62.8114   84.7928    8.9618 C.3     1  UNL1        0.0221
     20 C          63.2058   84.1093   10.2374 C.3     1  UNL1        0.0017
     21 C          64.2477   83.0305   10.2191 C.3     1  UNL1        0.0001
     22 C          62.5583   84.5048   11.5315 C.3     1  UNL1        0.0001
     23 C          64.8874   91.1206   13.7579 C.2     1  UNL1        0.2336
     24 O          64.5554   90.3113   14.9765 O.2     1  UNL1       -0.2744
     25 N          66.0042   92.1209   13.8032 N.am    1  UNL1       -0.2454
     26 C          66.3360   92.9302   12.5846 C.ar    1  UNL1        0.1373
     27 C          67.0077   92.2791   11.4120 C.ar    1  UNL1        0.0344
     28 C          67.3396   93.0884   10.1934 C.ar    1  UNL1        0.0001
     29 C          66.9997   94.5486   10.1474 C.ar    1  UNL1       -0.0033
     30 C          66.3280   95.1997   11.3200 C.ar    1  UNL1        0.0960
     31 N          65.9962   94.3904   12.5386 N.ar    1  UNL1       -0.2291
     32 C          67.3316   95.3579    8.9288 C.3     1  UNL1        0.0239
     33 C          67.2842   96.8560    8.9875 C.3     1  UNL1        0.0047
     34 C          67.7109   94.6690    7.6515 C.3     1  UNL1        0.0047
     35 C          66.7890   92.3120   15.0671 C.3     1  UNL1        0.0812
     36 C          68.0900   92.2459   15.8109 C.3     1  UNL1        0.0219
     37 C          66.8477   92.7092   16.5123 C.3     1  UNL1        0.0219
@<TRIPOS>BOND
     1    17    18    1
     2    18    16    1
     3    16    15    1
     4    14    15    1
     5    14    19    1
     6    19    20    1
     7    20    21    1
     8    20    22    1
     9    14    10    1
    10    10    11   am
    11    11    12    2
    12     1    11    1
    13     1     2    1
    14     2     3    1
    15     3     4    1
    16     4     5    1
    17     5    23    1
    18    23    24    2
    19    23    25   am
    20    25    26    1
    21    26    27   ar
    22    27    28   ar
    23    28    29   ar
    24    29    32    1
    25    32    33    1
    26    32    34    1
    27    29    30   ar
    28    30    31   ar
    29    25    35    1
    30    35    36    1
    31    36    37    1
    32     5     6    1
    33     6     7    1
    34     6     1    1
    35    31    26   ar
    36    37    35    1
    37    10    13    1
    38     3     8    1
    39     7     9    1
@<TRIPOS>MOLECULE
*****
 37 39 0 0 0
SMALL
GASTEIGER

@<TRIPOS>ATOM
      1 C          63.9704   90.1433   12.9723 C.3     1  UNL1        0.1194
      2 C          64.2699   88.8685   13.7037 C.3     1  UNL1        0.0802
      3 N          63.5857   87.5953   13.3028 N.3     1  UNL1       -0.2965
      4 C          62.6018   87.5969   12.1706 C.3     1  UNL1        0.0802
      5 C          62.3022   88.8718   11.4393 C.3     1  UNL1        0.1200
      6 C          62.9865   90.1450   11.8401 C.3     1  UNL1        0.1303
      7 O          62.6869   91.4199   11.1087 O.3     1  UNL1       -0.3834
      8 H          63.0868   87.2573   14.1259 H       1  UNL1        0.1233
      9 H          62.0351   91.2471   10.4114 H       1  UNL1        0.2104
     10 N          65.4777   92.1727   12.3729 N.am    1  UNL1       -0.3034
     11 C          64.6546   91.4165   13.3732 C.2     1  UNL1        0.2258
     12 O          64.5158   91.9336   14.7744 O.2     1  UNL1       -0.2750
     13 H          65.5689   91.8333   11.4532 H       1  UNL1        0.1495
     14 C          66.1620   93.4459   12.7737 C.3     1  UNL1        0.1011
     15 C          66.2346   94.5937   11.8108 C.3     1  UNL1        0.1615
     16 O          67.2829   94.6075   10.7380 O.3     1  UNL1       -0.3520
     17 C          68.2368   92.4813    9.5895 C.3     1  UNL1        0.0346
     18 C          67.2356   93.5975    9.6301 C.3     1  UNL1        0.1423
     19 C          66.7737   93.5713   14.1376 C.3     1  UNL1        0.0221
     20 C          67.8498   92.6188   14.5675 C.3     1  UNL1        0.0017
     21 C          68.1849   92.4728   16.0222 C.3     1  UNL1        0.0001
     22 C          68.5907   91.8122   13.5425 C.3     1  UNL1        0.0001
     23 C          61.3183   88.8734   10.3070 C.2     1  UNL1        0.2336
     24 O          60.6170   90.1431    9.9247 O.2     1  UNL1       -0.2744
     25 N          61.0358   87.6055    9.5570 N.am    1  UNL1       -0.2454
     26 C          61.7372   86.3358    9.9394 C.ar    1  UNL1        0.1373
     27 C          62.7236   85.7111    8.9978 C.ar    1  UNL1        0.0344
     28 C          63.4249   84.4415    9.3802 C.ar    1  UNL1        0.0001
     29 C          63.1398   83.7966   10.7041 C.ar    1  UNL1       -0.0033
     30 C          62.1533   84.4213   11.6457 C.ar    1  UNL1        0.0960
     31 N          61.4520   85.6909   11.2633 N.ar    1  UNL1       -0.2291
     32 C          63.8411   82.5270   11.0865 C.3     1  UNL1        0.0239
     33 C          63.5627   81.2602   10.3330 C.3     1  UNL1        0.0047
     34 C          64.8209   82.5241   12.2222 C.3     1  UNL1        0.0047
     35 C          60.0520   87.6071    8.4248 C.3     1  UNL1        0.0812
     36 C          59.3529   88.3308    7.3123 C.3     1  UNL1        0.0219
     37 C          59.0470   86.8863    7.5761 C.3     1  UNL1        0.0219
@<TRIPOS>BOND
     1    17    18    1
     2    18    16    1
     3    16    15    1
     4    14    15    1
     5    14    19    1
     6    19    20    1
     7    20    21    1
     8    20    22    1
     9    14    10    1
    10    10    11   am
    11    11    12    2
    12     1    11    1
    13     1     2    1
    14     2     3    1
    15     3     4    1
    16     4     5    1
    17     5    23    1
    18    23    24    2
    19    23    25   am
    20    25    26    1
    21    26    27   ar
    22    27    28   ar
    23    28    29   ar
    24    29    32    1
    25    32    33    1
    26    32    34    1
    27    29    30   ar
    28    30    31   ar
    29    25    35    1
    30    35    36    1
    31    36    37    1
    32     5     6    1
    33     6     7    1
    34     6     1    1
    35    31    26   ar
    36    37    35    1
    37    10    13    1
    38     3     8    1
    39     7     9    1
@<TRIPOS>MOLECULE
*****
 37 39 0 0 0
SMALL
GASTEIGER

@<TRIPOS>ATOM
      1 C          62.9178   89.1005   11.8435 C.3     1  UNL1        0.1194
      2 C          62.6186   90.0822   10.7495 C.3     1  UNL1        0.0802
      3 N          63.1777   91.4725   10.8159 N.3     1  UNL1       -0.2965
      4 C          64.0359   91.8812   11.9762 C.3     1  UNL1        0.0802
      5 C          64.3351   90.8995   13.0701 C.3     1  UNL1        0.1200
      6 C          63.7760   89.5092   13.0038 C.3     1  UNL1        0.1303
      7 O          64.0753   88.5275   14.0978 O.3     1  UNL1       -0.3834
      8 H          62.3823   92.1108   10.7988 H       1  UNL1        0.1233
      9 H          64.6387   88.9491   14.7654 H       1  UNL1        0.2104
     10 N          63.1708   86.5508   12.2735 N.am    1  UNL1       -0.3034
     11 C          62.3587   87.7101   11.7771 C.2     1  UNL1        0.2258
     12 O          60.9877   87.4792   11.2144 O.2     1  UNL1       -0.2750
     13 H          64.0707   86.7024   12.6429 H       1  UNL1        0.1495
     14 C          62.6117   85.1604   12.2071 C.3     1  UNL1        0.1011
     15 C          62.4854   84.3424   13.4580 C.3     1  UNL1        0.1615
     16 O          63.6157   83.4572   13.8926 O.3     1  UNL1       -0.3520
     17 C          62.4223   81.4048   12.8372 C.3     1  UNL1        0.0346
     18 C          63.5508   81.9799   13.6409 C.3     1  UNL1        0.1423
     19 C          62.1789   84.5882   10.8898 C.3     1  UNL1        0.0221
     20 C          63.1965   84.3038    9.8251 C.3     1  UNL1        0.0017
     21 C          63.1971   85.1028    8.5556 C.3     1  UNL1        0.0001
     22 C          64.2136   83.2203   10.0298 C.3     1  UNL1        0.0001
     23 C          65.1934   91.3081   14.2305 C.2     1  UNL1        0.2336
     24 O          64.9196   90.7546   15.5975 O.2     1  UNL1       -0.2744
     25 N          66.3254   92.2703   14.0239 N.am    1  UNL1       -0.2454
     26 C          66.5992   92.8238   12.6568 C.ar    1  UNL1        0.1373
     27 C          67.3277   91.9922   11.6431 C.ar    1  UNL1        0.0344
     28 C          67.6015   92.5457   10.2761 C.ar    1  UNL1        0.0001
     29 C          67.1467   93.9308    9.9229 C.ar    1  UNL1       -0.0033
     30 C          66.4182   94.7623   10.9366 C.ar    1  UNL1        0.0960
     31 N          66.1444   94.2088   12.3036 N.ar    1  UNL1       -0.2291
     32 C          67.4205   94.4843    8.5558 C.3     1  UNL1        0.0239
     33 C          68.3585   93.7674    7.6305 C.3     1  UNL1        0.0047
     34 C          66.7562   95.7546    8.1141 C.3     1  UNL1        0.0047
     35 C          67.1837   92.6789   15.1842 C.3     1  UNL1        0.0812
     36 C          67.9324   93.7390   15.9363 C.3     1  UNL1        0.0219
     37 C          67.9216   92.3268   16.4417 C.3     1  UNL1        0.0219
@<TRIPOS>BOND
     1    17    18    1
     2    18    16    1
     3    16    15    1
     4    14    15    1
     5    14    19    1
     6    19    20    1
     7    20    21    1
     8    20    22    1
     9    14    10    1
    10    10    11   am
    11    11    12    2
    12     1    11    1
    13     1     2    1
    14     2     3    1
    15     3     4    1
    16     4     5    1
    17     5    23    1
    18    23    24    2
    19    23    25   am
    20    25    26    1
    21    26    27   ar
    22    27    28   ar
    23    28    29   ar
    24    29    32    1
    25    32    33    1
    26    32    34    1
    27    29    30   ar
    28    30    31   ar
    29    25    35    1
    30    35    36    1
    31    36    37    1
    32     5     6    1
    33     6     7    1
    34     6     1    1
    35    31    26   ar
    36    37    35    1
    37    10    13    1
    38     3     8    1
    39     7     9    1
@<TRIPOS>MOLECULE
*****
 37 39 0 0 0
SMALL
GASTEIGER

@<TRIPOS>ATOM
      1 C          63.9659   90.3484   12.6792 C.3     1  UNL1        0.1194
      2 C          64.2316   89.1228   13.5022 C.3     1  UNL1        0.0802
      3 N          63.4925   87.8501   13.2125 N.3     1  UNL1       -0.2965
      4 C          62.4877   87.8030   12.0997 C.3     1  UNL1        0.0802
      5 C          62.2221   89.0285   11.2767 C.3     1  UNL1        0.1200
      6 C          62.9612   90.3012   11.5665 C.3     1  UNL1        0.1303
      7 O          62.6956   91.5268   10.7434 O.3     1  UNL1       -0.3834
      8 H          62.9973   87.5960   14.0673 H       1  UNL1        0.1233
      9 H          62.0245   91.3264   10.0723 H       1  UNL1        0.2104
     10 N          65.3552   92.3818   11.8516 N.am    1  UNL1       -0.3034
     11 C          64.7050   91.6211   12.9690 C.2     1  UNL1        0.2258
     12 O          64.7939   92.1331   14.3760 O.2     1  UNL1       -0.2750
     13 H          65.2969   92.0458   10.9281 H       1  UNL1        0.1495
     14 C          66.0943   93.6545   12.1414 C.3     1  UNL1        0.1011
     15 C          66.7151   93.8710   13.4896 C.3     1  UNL1        0.1615
     16 O          67.9181   93.0737   13.8982 O.3     1  UNL1       -0.3520
     17 C          69.0831   93.9415   16.0521 C.3     1  UNL1        0.0346
     18 C          68.2506   92.9091   15.3515 C.3     1  UNL1        0.1423
     19 C          66.2127   94.7107   11.0828 C.3     1  UNL1        0.0221
     20 C          67.1438   94.5102    9.9240 C.3     1  UNL1        0.0017
     21 C          67.4108   95.6385    8.9725 C.3     1  UNL1        0.0001
     22 C          67.8078   93.1812    9.7168 C.3     1  UNL1        0.0001
     23 C          61.2174   88.9814   10.1639 C.2     1  UNL1        0.2336
     24 O          60.4821   90.2262    9.7641 O.2     1  UNL1       -0.2744
     25 N          60.9479   87.6895    9.4509 N.am    1  UNL1       -0.2454
     26 C          61.6832   86.4447    9.8508 C.ar    1  UNL1        0.1373
     27 C          62.6793   85.8283    8.9138 C.ar    1  UNL1        0.0344
     28 C          63.4145   84.5835    9.3137 C.ar    1  UNL1        0.0001
     29 C          63.1537   83.9552   10.6505 C.ar    1  UNL1       -0.0033
     30 C          62.1577   84.5716   11.5875 C.ar    1  UNL1        0.0960
     31 N          61.4224   85.8163   11.1876 N.ar    1  UNL1       -0.2291
     32 C          63.8890   82.7104   11.0504 C.3     1  UNL1        0.0239
     33 C          64.9268   82.7670   12.1320 C.3     1  UNL1        0.0047
     34 C          63.5866   81.4090   10.3686 C.3     1  UNL1        0.0047
     35 C          59.9432   87.6424    8.3381 C.3     1  UNL1        0.0812
     36 C          58.9335   86.8815    7.5310 C.3     1  UNL1        0.0219
     37 C          59.2127   88.3216    7.2179 C.3     1  UNL1        0.0219
@<TRIPOS>BOND
     1    17    18    1
     2    18    16    1
     3    16    15    1
     4    14    15    1
     5    14    19    1
     6    19    20    1
     7    20    21    1
     8    20    22    1
     9    14    10    1
    10    10    11   am
    11    11    12    2
    12     1    11    1
    13     1     2    1
    14     2     3    1
    15     3     4    1
    16     4     5    1
    17     5    23    1
    18    23    24    2
    19    23    25   am
    20    25    26    1
    21    26    27   ar
    22    27    28   ar
    23    28    29   ar
    24    29    32    1
    25    32    33    1
    26    32    34    1
    27    29    30   ar
    28    30    31   ar
    29    25    35    1
    30    35    36    1
    31    36    37    1
    32     5     6    1
    33     6     7    1
    34     6     1    1
    35    31    26   ar
    36    37    35    1
    37    10    13    1
    38     3     8    1
    39     7     9    1
@<TRIPOS>MOLECULE
*****
 37 39 0 0 0
SMALL
GASTEIGER

@<TRIPOS>ATOM
      1 C          63.0060   89.7727   11.4685 C.3     1  UNL1        0.1194
      2 C          62.8203   90.7695   10.3631 C.3     1  UNL1        0.0802
      3 N          63.5844   92.0602   10.3810 N.3     1  UNL1       -0.2965
      4 C          64.5341   92.3541   11.5042 C.3     1  UNL1        0.0802
      5 C          64.7197   91.3573   12.6096 C.3     1  UNL1        0.1200
      6 C          63.9557   90.0666   12.5917 C.3     1  UNL1        0.1303
      7 O          64.1413   89.0697   13.6972 O.3     1  UNL1       -0.3834
      8 H          62.8941   92.8111   10.3750 H       1  UNL1        0.1233
      9 H          64.7846   89.4127   14.3371 H       1  UNL1        0.2104
     10 N          62.9774   87.1756   11.4040 N.am    1  UNL1       -0.3034
     11 C          62.2419   88.4820   11.4507 C.2     1  UNL1        0.2258
     12 O          60.7423   88.4977   11.4794 O.2     1  UNL1       -0.2750
     13 H          63.9617   87.1653   11.3851 H       1  UNL1        0.1495
     14 C          62.2133   85.8849   11.3862 C.3     1  UNL1        0.1011
     15 C          62.4485   84.8593   12.4551 C.3     1  UNL1        0.1615
     16 O          62.4544   83.4004   12.1065 O.3     1  UNL1       -0.3520
     17 C          64.3056   82.8167   10.3795 C.3     1  UNL1        0.0346
     18 C          63.7450   82.7155   11.7672 C.3     1  UNL1        0.1423
     19 C          61.2141   85.6199   10.2993 C.3     1  UNL1        0.0221
     20 C          61.5802   85.8709    8.8664 C.3     1  UNL1        0.0017
     21 C          62.9047   85.4056    8.3382 C.3     1  UNL1        0.0001
     22 C          60.6216   86.5872    7.9618 C.3     1  UNL1        0.0001
     23 C          65.6695   91.6511   13.7329 C.2     1  UNL1        0.2336
     24 O          65.6599   90.7971   14.9659 O.2     1  UNL1       -0.2744
     25 N          66.6287   92.7991   13.6231 N.am    1  UNL1       -0.2454
     26 C          66.6383   93.6531   12.3899 C.ar    1  UNL1        0.1373
     27 C          66.0927   95.0495   12.4405 C.ar    1  UNL1        0.0344
     28 C          66.1023   95.9035   11.2074 C.ar    1  UNL1        0.0001
     29 C          66.6573   95.3611    9.9238 C.ar    1  UNL1       -0.0033
     30 C          67.2029   93.9648    9.8732 C.ar    1  UNL1        0.0960
     31 N          67.1933   93.1108   11.1063 N.ar    1  UNL1       -0.2291
     32 C          66.6669   96.2152    8.6906 C.3     1  UNL1        0.0239
     33 C          67.9681   96.7040    8.1269 C.3     1  UNL1        0.0047
     34 C          65.3752   96.5804    8.0213 C.3     1  UNL1        0.0047
     35 C          67.5784   93.0929   14.7463 C.3     1  UNL1        0.0812
     36 C          68.4099   94.0711   15.5221 C.3     1  UNL1        0.0219
     37 C          68.3920   92.6238   15.9159 C.3     1  UNL1        0.0219
@<TRIPOS>BOND
     1    17    18    1
     2    18    16    1
     3    16    15    1
     4    14    15    1
     5    14    19    1
     6    19    20    1
     7    20    21    1
     8    20    22    1
     9    14    10    1
    10    10    11   am
    11    11    12    2
    12     1    11    1
    13     1     2    1
    14     2     3    1
    15     3     4    1
    16     4     5    1
    17     5    23    1
    18    23    24    2
    19    23    25   am
    20    25    26    1
    21    26    27   ar
    22    27    28   ar
    23    28    29   ar
    24    29    32    1
    25    32    33    1
    26    32    34    1
    27    29    30   ar
    28    30    31   ar
    29    25    35    1
    30    35    36    1
    31    36    37    1
    32     5     6    1
    33     6     7    1
    34     6     1    1
    35    31    26   ar
    36    37    35    1
    37    10    13    1
    38     3     8    1
    39     7     9    1
@<TRIPOS>MOLECULE
*****
 37 39 0 0 0
SMALL
GASTEIGER

@<TRIPOS>ATOM
      1 C          62.0798   90.1576   12.0159 C.3     1  UNL1        0.1194
      2 C          60.8870   90.1078   12.9240 C.3     1  UNL1        0.0802
      3 N          59.7057   89.2562   12.5644 N.3     1  UNL1       -0.2965
      4 C          59.7171   88.4545   11.2967 C.3     1  UNL1        0.0802
      5 C          60.9099   88.5043   10.3886 C.3     1  UNL1        0.1200
      6 C          62.0913   89.3558   10.7482 C.3     1  UNL1        0.1303
      7 O          63.2841   89.4056    9.8400 O.3     1  UNL1       -0.3834
      8 H          58.8992   89.8785   12.5119 H       1  UNL1        0.1233
      9 H          63.1295   88.8344    9.0715 H       1  UNL1        0.2104
     10 N          64.1481   91.5554   11.2963 N.am    1  UNL1       -0.3034
     11 C          63.2611   91.0091   12.3755 C.2     1  UNL1        0.2258
     12 O          63.5555   91.3144   13.8142 O.2     1  UNL1       -0.2750
     13 H          63.9550   91.3551   10.3519 H       1  UNL1        0.1495
     14 C          65.3295   92.4070   11.6558 C.3     1  UNL1        0.1011
     15 C          66.1252   92.1029   12.8905 C.3     1  UNL1        0.1615
     16 O          67.1487   93.0824   13.3833 O.3     1  UNL1       -0.3520
     17 C          67.3012   92.6987   15.9483 C.3     1  UNL1        0.0346
     18 C          67.0652   93.6138   14.7835 C.3     1  UNL1        0.1423
     19 C          65.7151   93.5627   10.7807 C.3     1  UNL1        0.0221
     20 C          66.9878   93.5116    9.9885 C.3     1  UNL1        0.0017
     21 C          67.7396   92.2200    9.8595 C.3     1  UNL1        0.0001
     22 C          67.5088   94.7521    9.3253 C.3     1  UNL1        0.0001
     23 C          60.9215   87.7025    9.1209 C.2     1  UNL1        0.2336
     24 O          60.2776   88.2497    7.8815 O.2     1  UNL1       -0.2744
     25 N          61.5769   86.3536    9.0925 N.am    1  UNL1       -0.2454
     26 C          62.2208   85.8064   10.3320 C.ar    1  UNL1        0.1373
     27 C          62.5935   84.3553   10.4054 C.ar    1  UNL1        0.0344
     28 C          63.2374   83.8083   11.6448 C.ar    1  UNL1        0.0001
     29 C          63.5085   84.7122   12.8107 C.ar    1  UNL1       -0.0033
     30 C          63.1358   86.1633   12.7372 C.ar    1  UNL1        0.0960
     31 N          62.4919   86.7104   11.4979 N.ar    1  UNL1       -0.2291
     32 C          64.1524   84.1651   14.0501 C.3     1  UNL1        0.0239
     33 C          63.8521   82.7646   14.4956 C.3     1  UNL1        0.0047
     34 C          65.0966   85.0184   14.8440 C.3     1  UNL1        0.0047
     35 C          61.5884   85.5518    7.8249 C.3     1  UNL1        0.0812
     36 C          62.3472   84.8243    6.7549 C.3     1  UNL1        0.0219
     37 C          60.8497   84.8906    6.6992 C.3     1  UNL1        0.0219
@<TRIPOS>BOND
     1    17    18    1
     2    18    16    1
     3    16    15    1
     4    14    15    1
     5    14    19    1
     6    19    20    1
     7    20    21    1
     8    20    22    1
     9    14    10    1
    10    10    11   am
    11    11    12    2
    12     1    11    1
    13     1     2    1
    14     2     3    1
    15     3     4    1
    16     4     5    1
    17     5    23    1
    18    23    24    2
    19    23    25   am
    20    25    26    1
    21    26    27   ar
    22    27    28   ar
    23    28    29   ar
    24    29    32    1
    25    32    33    1
    26    32    34    1
    27    29    30   ar
    28    30    31   ar
    29    25    35    1
    30    35    36    1
    31    36    37    1
    32     5     6    1
    33     6     7    1
    34     6     1    1
    35    31    26   ar
    36    37    35    1
    37    10    13    1
    38     3     8    1
    39     7     9    1
@<TRIPOS>MOLECULE
*****
 37 39 0 0 0
SMALL
GASTEIGER

@<TRIPOS>ATOM
      1 C          63.7400   88.5018   15.4877 C.3     1  UNL1        0.1194
      2 C          63.0196   88.9670   16.7183 C.3     1  UNL1        0.0802
      3 N          63.0816   90.4100   17.1233 N.3     1  UNL1       -0.2965
      4 C          63.8640   91.3877   16.2976 C.3     1  UNL1        0.0802
      5 C          64.5843   90.9225   15.0669 C.3     1  UNL1        0.1200
      6 C          64.5223   89.4796   14.6619 C.3     1  UNL1        0.1303
      7 O          65.2427   89.0144   13.4312 O.3     1  UNL1       -0.3834
      8 H          63.4773   90.4353   18.0631 H       1  UNL1        0.1233
      9 H          65.6952   89.7662   13.0178 H       1  UNL1        0.2104
     10 N          63.6250   86.6892   13.6299 N.am    1  UNL1       -0.3034
     11 C          63.6780   87.0588   15.0827 C.2     1  UNL1        0.2258
     12 O          63.6689   85.9855   16.1304 O.2     1  UNL1       -0.2750
     13 H          63.6310   87.3936   12.9422 H       1  UNL1        0.1495
     14 C          63.5630   85.2462   13.2250 C.3     1  UNL1        0.1011
     15 C          64.5284   84.2601   13.8128 C.3     1  UNL1        0.1615
     16 O          64.0235   82.9772   14.4038 O.3     1  UNL1       -0.3520
     17 C          62.6006   81.1688   13.1977 C.3     1  UNL1        0.0346
     18 C          63.9393   81.7428   13.5558 C.3     1  UNL1        0.1423
     19 C          62.5356   84.7894   12.2321 C.3     1  UNL1        0.0221
     20 C          62.8887   84.6941   10.7774 C.3     1  UNL1        0.0017
     21 C          62.3628   85.7124    9.8097 C.3     1  UNL1        0.0001
     22 C          63.7679   83.5805   10.2904 C.3     1  UNL1        0.0001
     23 C          65.3667   91.9003   14.2411 C.2     1  UNL1        0.2336
     24 O          66.4950   92.6709   14.8601 O.2     1  UNL1       -0.2744
     25 N          65.0207   92.1075   12.7963 N.am    1  UNL1       -0.2454
     26 C          63.8924   91.3369   12.1774 C.ar    1  UNL1        0.1373
     27 C          63.8609   91.1144   10.6943 C.ar    1  UNL1        0.0344
     28 C          62.7325   90.3438   10.0754 C.ar    1  UNL1        0.0001
     29 C          61.6358   89.7957   10.9395 C.ar    1  UNL1       -0.0033
     30 C          61.6673   90.0183   12.4226 C.ar    1  UNL1        0.0960
     31 N          62.7956   90.7888   13.0415 N.ar    1  UNL1       -0.2291
     32 C          60.5074   89.0251   10.3206 C.3     1  UNL1        0.0239
     33 C          60.1343   89.2628    8.8873 C.3     1  UNL1        0.0047
     34 C          59.7522   88.0169   11.1349 C.3     1  UNL1        0.0047
     35 C          65.8031   93.0852   11.9705 C.3     1  UNL1        0.0812
     36 C          66.7664   93.3655   10.8554 C.3     1  UNL1        0.0219
     37 C          66.1948   94.4984   11.6553 C.3     1  UNL1        0.0219
@<TRIPOS>BOND
     1    17    18    1
     2    18    16    1
     3    16    15    1
     4    14    15    1
     5    14    19    1
     6    19    20    1
     7    20    21    1
     8    20    22    1
     9    14    10    1
    10    10    11   am
    11    11    12    2
    12     1    11    1
    13     1     2    1
    14     2     3    1
    15     3     4    1
    16     4     5    1
    17     5    23    1
    18    23    24    2
    19    23    25   am
    20    25    26    1
    21    26    27   ar
    22    27    28   ar
    23    28    29   ar
    24    29    32    1
    25    32    33    1
    26    32    34    1
    27    29    30   ar
    28    30    31   ar
    29    25    35    1
    30    35    36    1
    31    36    37    1
    32     5     6    1
    33     6     7    1
    34     6     1    1
    35    31    26   ar
    36    37    35    1
    37    10    13    1
    38     3     8    1
    39     7     9    1
@<TRIPOS>MOLECULE
*****
 37 39 0 0 0
SMALL
GASTEIGER

@<TRIPOS>ATOM
      1 C          61.7819   89.7013   12.1809 C.3     1  UNL1        0.1194
      2 C          60.4809   89.6945   12.9273 C.3     1  UNL1        0.0802
      3 N          59.2966   88.9667   12.3635 N.3     1  UNL1       -0.2965
      4 C          59.4134   88.2458   11.0533 C.3     1  UNL1        0.0802
      5 C          60.7145   88.2527   10.3070 C.3     1  UNL1        0.1200
      6 C          61.8988   88.9804   10.8708 C.3     1  UNL1        0.1303
      7 O          63.1999   88.9872   10.1243 O.3     1  UNL1       -0.3834
      8 H          58.5520   89.6554   12.2553 H       1  UNL1        0.1233
      9 H          63.1046   88.4788    9.3038 H       1  UNL1        0.2104
     10 N          63.9369   91.1081   11.8247 N.am    1  UNL1       -0.3034
     11 C          62.9662   90.4291   12.7447 C.2     1  UNL1        0.2258
     12 O          63.1798   90.4778   14.2286 O.2     1  UNL1       -0.2750
     13 H          63.7968   91.0761   10.8507 H       1  UNL1        0.1495
     14 C          65.1212   91.8359   12.3885 C.3     1  UNL1        0.1011
     15 C          65.4728   93.2029   11.8809 C.3     1  UNL1        0.1615
     16 O          66.8720   93.4979   11.4281 O.3     1  UNL1       -0.3520
     17 C          68.1676   92.0557    9.6985 C.3     1  UNL1        0.0346
     18 C          67.2757   93.2207   10.0103 C.3     1  UNL1        0.1423
     19 C          65.9539   91.1966   13.4599 C.3     1  UNL1        0.0221
     20 C          66.5028   92.0294   14.5802 C.3     1  UNL1        0.0017
     21 C          65.6129   92.4384   15.7164 C.3     1  UNL1        0.0001
     22 C          67.9416   92.4533   14.5644 C.3     1  UNL1        0.0001
     23 C          60.8313   87.5317    8.9967 C.2     1  UNL1        0.2336
     24 O          60.2655   88.1449    7.7502 O.2     1  UNL1       -0.2744
     25 N          61.5141   86.1976    8.9331 N.am    1  UNL1       -0.2454
     26 C          62.0799   85.5844   10.1797 C.ar    1  UNL1        0.1373
     27 C          63.1802   84.5696   10.0835 C.ar    1  UNL1        0.0344
     28 C          63.7460   83.9565   11.3301 C.ar    1  UNL1        0.0001
     29 C          63.2115   84.3583   12.6728 C.ar    1  UNL1       -0.0033
     30 C          62.1112   85.3731   12.7689 C.ar    1  UNL1        0.0960
     31 N          61.5454   85.9862   11.5224 N.ar    1  UNL1       -0.2291
     32 C          63.7774   83.7451   13.9194 C.3     1  UNL1        0.0239
     33 C          63.3477   82.3712   14.3411 C.3     1  UNL1        0.0047
     34 C          64.7729   84.5058   14.7441 C.3     1  UNL1        0.0047
     35 C          61.6309   85.4767    7.6229 C.3     1  UNL1        0.0812
     36 C          62.4787   84.8433    6.5598 C.3     1  UNL1        0.0219
     37 C          60.9857   84.8612    6.4168 C.3     1  UNL1        0.0219
@<TRIPOS>BOND
     1    17    18    1
     2    18    16    1
     3    16    15    1
     4    14    15    1
     5    14    19    1
     6    19    20    1
     7    20    21    1
     8    20    22    1
     9    14    10    1
    10    10    11   am
    11    11    12    2
    12     1    11    1
    13     1     2    1
    14     2     3    1
    15     3     4    1
    16     4     5    1
    17     5    23    1
    18    23    24    2
    19    23    25   am
    20    25    26    1
    21    26    27   ar
    22    27    28   ar
    23    28    29   ar
    24    29    32    1
    25    32    33    1
    26    32    34    1
    27    29    30   ar
    28    30    31   ar
    29    25    35    1
    30    35    36    1
    31    36    37    1
    32     5     6    1
    33     6     7    1
    34     6     1    1
    35    31    26   ar
    36    37    35    1
    37    10    13    1
    38     3     8    1
    39     7     9    1
@<TRIPOS>MOLECULE
*****
 37 39 0 0 0
SMALL
GASTEIGER

@<TRIPOS>ATOM
      1 C          62.8784   88.0165   11.8733 C.3     1  UNL1        0.1194
      2 C          62.5654   88.8852   10.6912 C.3     1  UNL1        0.0802
      3 N          62.7905   90.3663   10.7683 N.3     1  UNL1       -0.2965
      4 C          63.3285   90.9786   12.0275 C.3     1  UNL1        0.0802
      5 C          63.6415   90.1099   13.2096 C.3     1  UNL1        0.1200
      6 C          63.4164   88.6288   13.1325 C.3     1  UNL1        0.1303
      7 O          63.7295   87.7601   14.3146 O.3     1  UNL1       -0.3834
      8 H          61.8907   90.8107   10.5859 H       1  UNL1        0.1233
      9 H          64.0655   88.3097   15.0398 H       1  UNL1        0.2104
     10 N          63.7754   85.5893   12.1053 N.am    1  UNL1       -0.3034
     11 C          62.6533   86.5355   11.7962 C.2     1  UNL1        0.2258
     12 O          61.3062   86.0007   11.4100 O.2     1  UNL1       -0.2750
     13 H          64.6596   85.9403   12.3588 H       1  UNL1        0.1495
     14 C          63.5504   84.1083   12.0282 C.3     1  UNL1        0.1011
     15 C          63.1403   83.4786   10.7300 C.3     1  UNL1        0.1615
     16 O          63.7882   83.9120    9.4485 O.3     1  UNL1       -0.3520
     17 C          62.4402   84.7341    7.3853 C.3     1  UNL1        0.0346
     18 C          63.1925   85.0321    8.6483 C.3     1  UNL1        0.1423
     19 C          63.7353   83.2570   13.2494 C.3     1  UNL1        0.0221
     20 C          62.5450   82.8453   14.0639 C.3     1  UNL1        0.0017
     21 C          61.8106   81.5801   13.7324 C.3     1  UNL1        0.0001
     22 C          62.0890   83.6989   15.2101 C.3     1  UNL1        0.0001
     23 C          64.1796   90.7222   14.4688 C.2     1  UNL1        0.2336
     24 O          63.5566   90.3869   15.7914 O.2     1  UNL1       -0.2744
     25 N          65.3406   91.6697   14.4053 N.am    1  UNL1       -0.2454
     26 C          65.9637   92.0050   13.0826 C.ar    1  UNL1        0.1373
     27 C          67.3266   91.4801   12.7410 C.ar    1  UNL1        0.0344
     28 C          67.9495   91.8153   11.4183 C.ar    1  UNL1        0.0001
     29 C          67.2095   92.6755   10.4373 C.ar    1  UNL1       -0.0033
     30 C          65.8466   93.2004   10.7789 C.ar    1  UNL1        0.0960
     31 N          65.2236   92.8652   12.1016 N.ar    1  UNL1       -0.2291
     32 C          67.8325   93.0108    9.1145 C.3     1  UNL1        0.0239
     33 C          67.5292   94.3228    8.4537 C.3     1  UNL1        0.0047
     34 C          68.7588   92.0341    8.4527 C.3     1  UNL1        0.0047
     35 C          65.8787   92.2820   15.6645 C.3     1  UNL1        0.0812
     36 C          65.6746   92.7297   17.0815 C.3     1  UNL1        0.0219
     37 C          67.0148   92.8948   16.4285 C.3     1  UNL1        0.0219
@<TRIPOS>BOND
     1    17    18    1
     2    18    16    1
     3    16    15    1
     4    14    15    1
     5    14    19    1
     6    19    20    1
     7    20    21    1
     8    20    22    1
     9    14    10    1
    10    10    11   am
    11    11    12    2
    12     1    11    1
    13     1     2    1
    14     2     3    1
    15     3     4    1
    16     4     5    1
    17     5    23    1
    18    23    24    2
    19    23    25   am
    20    25    26    1
    21    26    27   ar
    22    27    28   ar
    23    28    29   ar
    24    29    32    1
    25    32    33    1
    26    32    34    1
    27    29    30   ar
    28    30    31   ar
    29    25    35    1
    30    35    36    1
    31    36    37    1
    32     5     6    1
    33     6     7    1
    34     6     1    1
    35    31    26   ar
    36    37    35    1
    37    10    13    1
    38     3     8    1
    39     7     9    1
