@<TRIPOS>MOLECULE
*****
 35 39 0 0 0
SMALL
GASTEIGER

@<TRIPOS>ATOM
      1 C          62.9426   86.2135   12.3614 C.2     1  UNL1        0.2668
      2 O          63.5360   87.1097   13.4078 O.2     1  UNL1       -0.2683
      3 N          62.1355   86.8003   11.2414 N.am    1  UNL1       -0.2748
      4 C          61.4838   86.0340   10.1288 C.3     1  UNL1        0.0937
      5 C          60.7839   87.0165    9.2372 C.3     1  UNL1        0.0200
      6 C          60.2554   86.0005    8.2686 C.3     1  UNL1        0.0018
      7 C          59.9583   87.4565    8.0647 C.3     1  UNL1        0.0018
      8 C          61.0031   88.3900    9.7989 C.3     1  UNL1        0.0232
      9 C          61.8385   88.2564   11.0375 C.3     1  UNL1        0.0952
     10 C          63.7990   81.6675    9.9948 C.3     1  UNL1        0.0521
     11 C          63.5845   82.4577   11.2516 C.ar    1  UNL1        0.0595
     12 C          63.5837   81.7649   12.5821 C.ar    1  UNL1        0.0149
     13 C          63.3693   82.5550   13.8390 C.ar    1  UNL1        0.0059
     14 C          63.1556   84.0379   13.7654 C.ar    1  UNL1        0.0579
     15 C          63.1563   84.7306   12.4349 C.ar    1  UNL1        0.1372
     16 N          63.3708   83.9406   11.1781 N.ar    1  UNL1       -0.2450
     17 C          62.9411   84.8279   15.0223 C.ar    1  UNL1        0.1639
     18 N          61.5492   85.0784   15.5225 N.ar    1  UNL1       -0.2250
     19 C          61.3347   85.8685   16.7793 C.ar    1  UNL1        0.1022
     20 C          62.5120   86.4081   17.5361 C.ar    1  UNL1        0.0414
     21 C          63.9038   86.1576   17.0360 C.ar    1  UNL1        0.1022
     22 N          64.1183   85.3676   15.7791 N.ar    1  UNL1       -0.2250
     23 C          62.2964   89.3814   11.9178 C.3     1  UNL1        0.1082
     24 N          63.2538   90.4070   11.3871 N.pl3   1  UNL1       -0.3167
     25 H          63.2476   90.6374   10.4300 H       1  UNL1        0.1482
     26 C          64.2205   91.0814   12.3148 C.ar    1  UNL1        0.1285
     27 C          64.3692   90.5952   13.7260 C.ar    1  UNL1        0.0340
     28 C          65.3360   91.2697   14.6536 C.ar    1  UNL1        0.0083
     29 C          66.1540   92.4302   14.1700 C.ar    1  UNL1        0.0906
     30 C          66.0053   92.9163   12.7588 C.ar    1  UNL1        0.1041
     31 N          65.0386   92.2419   11.8311 N.ar    1  UNL1       -0.2294
     32 C          67.1208   93.1046   15.0977 C.3     1  UNL1        0.4200
     33 F          68.0876   93.7790   16.0254 F       1  UNL1       -0.1658
     34 F          66.7797   94.4320   14.4880 F       1  UNL1       -0.1658
     35 F          67.4619   91.7772   15.7074 F       1  UNL1       -0.1658
@<TRIPOS>BOND
     1    10    11    1
     2    11    12   ar
     3    12    13   ar
     4    13    14   ar
     5    14    17    1
     6    17    18   ar
     7    18    19   ar
     8    19    20   ar
     9    20    21   ar
    10    21    22   ar
    11    14    15   ar
    12    15     1    1
    13     1     2    2
    14     1     3   am
    15     3     4    1
    16     4     5    1
    17     5     6    1
    18     6     7    1
    19     5     8    1
    20     8     9    1
    21     9    23    1
    22    23    24    1
    23    24    26    1
    24    26    27   ar
    25    27    28   ar
    26    28    29   ar
    27    29    32    1
    28    32    33    1
    29    32    34    1
    30    32    35    1
    31    29    30   ar
    32    30    31   ar
    33    15    16   ar
    34    16    11   ar
    35    22    17   ar
    36     9     3    1
    37    31    26   ar
    38     7     5    1
    39    24    25    1
@<TRIPOS>MOLECULE
*****
 35 39 0 0 0
SMALL
GASTEIGER

@<TRIPOS>ATOM
      1 C          62.9640   86.3760   12.4506 C.2     1  UNL1        0.2668
      2 O          63.5338   87.2526   13.5263 O.2     1  UNL1       -0.2683
      3 N          62.1229   86.9746   11.3624 N.am    1  UNL1       -0.2748
      4 C          61.4891   86.2280   10.2262 C.3     1  UNL1        0.0937
      5 C          60.7426   87.2170    9.3809 C.3     1  UNL1        0.0200
      6 C          60.2430   86.2201    8.3776 C.3     1  UNL1        0.0018
      7 C          59.8881   87.6704    8.2344 C.3     1  UNL1        0.0018
      8 C          60.9149   88.5748    9.9946 C.3     1  UNL1        0.0232
      9 C          61.7680   88.4250   11.2192 C.3     1  UNL1        0.0952
     10 C          64.0074   81.9703    9.9007 C.3     1  UNL1        0.0521
     11 C          63.7569   82.6980   11.1883 C.ar    1  UNL1        0.0595
     12 C          63.7777   81.9504   12.4885 C.ar    1  UNL1        0.0149
     13 C          63.5272   82.6779   13.7761 C.ar    1  UNL1        0.0059
     14 C          63.2560   84.1531   13.7635 C.ar    1  UNL1        0.0579
     15 C          63.2352   84.9008   12.4633 C.ar    1  UNL1        0.1372
     16 N          63.4857   84.1732   11.1757 N.ar    1  UNL1       -0.2450
     17 C          63.0055   84.8806   15.0511 C.ar    1  UNL1        0.1639
     18 N          64.1604   85.3888   15.8624 N.ar    1  UNL1       -0.2250
     19 C          63.9100   86.1163   17.1500 C.ar    1  UNL1        0.1022
     20 C          62.5047   86.3357   17.6264 C.ar    1  UNL1        0.0414
     21 C          61.3498   85.8276   16.8152 C.ar    1  UNL1        0.1022
     22 N          61.6003   85.1001   15.5276 N.ar    1  UNL1       -0.2250
     23 C          62.1919   89.5314   12.1392 C.3     1  UNL1        0.1082
     24 N          63.6425   89.7134   12.4749 N.pl3   1  UNL1       -0.3167
     25 H          64.1375   88.9921   12.9266 H       1  UNL1        0.1482
     26 C          64.3388   90.9943   12.1225 C.ar    1  UNL1        0.1285
     27 C          65.2338   91.6617   13.1244 C.ar    1  UNL1        0.0340
     28 C          65.9301   92.9427   12.7720 C.ar    1  UNL1        0.0083
     29 C          65.7316   93.5562   11.4177 C.ar    1  UNL1        0.0906
     30 C          64.8367   92.8888   10.4158 C.ar    1  UNL1        0.1041
     31 N          64.1403   91.6079   10.7682 N.ar    1  UNL1       -0.2294
     32 C          66.4280   94.8372   11.0654 C.3     1  UNL1        0.4200
     33 F          67.1244   96.1182   10.7130 F       1  UNL1       -0.1658
     34 F          66.7561   94.2858    9.7095 F       1  UNL1       -0.1658
     35 F          66.0999   95.3886   12.4212 F       1  UNL1       -0.1658
@<TRIPOS>BOND
     1    10    11    1
     2    11    12   ar
     3    12    13   ar
     4    13    14   ar
     5    14    17    1
     6    17    18   ar
     7    18    19   ar
     8    19    20   ar
     9    20    21   ar
    10    21    22   ar
    11    14    15   ar
    12    15     1    1
    13     1     2    2
    14     1     3   am
    15     3     4    1
    16     4     5    1
    17     5     6    1
    18     6     7    1
    19     5     8    1
    20     8     9    1
    21     9    23    1
    22    23    24    1
    23    24    26    1
    24    26    27   ar
    25    27    28   ar
    26    28    29   ar
    27    29    32    1
    28    32    33    1
    29    32    34    1
    30    32    35    1
    31    29    30   ar
    32    30    31   ar
    33    15    16   ar
    34    16    11   ar
    35    22    17   ar
    36     9     3    1
    37    31    26   ar
    38     7     5    1
    39    24    25    1
@<TRIPOS>MOLECULE
*****
 35 39 0 0 0
SMALL
GASTEIGER

@<TRIPOS>ATOM
      1 C          63.4770   87.7293   13.3278 C.2     1  UNL1        0.2668
      2 O          63.8497   88.9304   12.5100 O.2     1  UNL1       -0.2683
      3 N          63.3318   87.8508   14.8158 N.am    1  UNL1       -0.2748
      4 C          62.9662   86.7436   15.7593 C.3     1  UNL1        0.0937
      5 C          62.9352   87.3093   17.1482 C.3     1  UNL1        0.0200
      6 C          62.5596   86.0278   17.8312 C.3     1  UNL1        0.0018
      7 C          62.7546   87.2778   18.6369 C.3     1  UNL1        0.0018
      8 C          63.2816   88.7663   17.0630 C.3     1  UNL1        0.0232
      9 C          63.5268   89.1010   15.6216 C.3     1  UNL1        0.0952
     10 C          64.4683   82.6420   12.9587 C.3     1  UNL1        0.0521
     11 C          63.7453   83.8632   12.4730 C.ar    1  UNL1        0.0595
     12 C          62.7947   83.7619   11.3170 C.ar    1  UNL1        0.0149
     13 C          62.0716   84.9830   10.8313 C.ar    1  UNL1        0.0059
     14 C          62.2991   86.3055   11.5016 C.ar    1  UNL1        0.0579
     15 C          63.2496   86.4068   12.6575 C.ar    1  UNL1        0.1372
     16 N          63.9727   85.1857   13.1433 N.ar    1  UNL1       -0.2450
     17 C          61.5760   87.5266   11.0158 C.ar    1  UNL1        0.1639
     18 N          60.3961   88.0526   11.7784 N.ar    1  UNL1       -0.2250
     19 C          59.6730   89.2737   11.2927 C.ar    1  UNL1        0.1022
     20 C          60.1297   89.9689   10.0445 C.ar    1  UNL1        0.0414
     21 C          61.3095   89.4430    9.2820 C.ar    1  UNL1        0.1022
     22 N          62.0326   88.2219    9.7677 N.ar    1  UNL1       -0.2250
     23 C          63.9011   90.4491   15.0808 C.3     1  UNL1        0.1082
     24 N          65.2868   90.6895   14.5590 N.pl3   1  UNL1       -0.3167
     25 H          66.0135   90.0655   14.7863 H       1  UNL1        0.1482
     26 C          65.5652   91.8808   13.6911 C.ar    1  UNL1        0.1285
     27 C          65.1848   91.8570   12.2403 C.ar    1  UNL1        0.0340
     28 C          65.4632   93.0482   11.3723 C.ar    1  UNL1        0.0083
     29 C          66.1219   94.2633   11.9551 C.ar    1  UNL1        0.0906
     30 C          66.5022   94.2871   13.4059 C.ar    1  UNL1        0.1041
     31 N          66.2238   93.0959   14.2739 N.ar    1  UNL1       -0.2294
     32 C          66.4003   95.4545   11.0872 C.3     1  UNL1        0.4200
     33 F          66.6787   96.6458   10.2191 F       1  UNL1       -0.1658
     34 F          66.0471   96.3660   12.2248 F       1  UNL1       -0.1658
     35 F          66.7535   94.5431    9.9494 F       1  UNL1       -0.1658
@<TRIPOS>BOND
     1    10    11    1
     2    11    12   ar
     3    12    13   ar
     4    13    14   ar
     5    14    17    1
     6    17    18   ar
     7    18    19   ar
     8    19    20   ar
     9    20    21   ar
    10    21    22   ar
    11    14    15   ar
    12    15     1    1
    13     1     2    2
    14     1     3   am
    15     3     4    1
    16     4     5    1
    17     5     6    1
    18     6     7    1
    19     5     8    1
    20     8     9    1
    21     9    23    1
    22    23    24    1
    23    24    26    1
    24    26    27   ar
    25    27    28   ar
    26    28    29   ar
    27    29    32    1
    28    32    33    1
    29    32    34    1
    30    32    35    1
    31    29    30   ar
    32    30    31   ar
    33    15    16   ar
    34    16    11   ar
    35    22    17   ar
    36     9     3    1
    37    31    26   ar
    38     7     5    1
    39    24    25    1
@<TRIPOS>MOLECULE
*****
 35 39 0 0 0
SMALL
GASTEIGER

@<TRIPOS>ATOM
      1 C          62.7148   86.9859   11.0700 C.2     1  UNL1        0.2668
      2 O          63.2328   88.3771   11.2855 O.2     1  UNL1       -0.2683
      3 N          62.9191   85.9380   12.1236 N.am    1  UNL1       -0.2748
      4 C          62.4600   84.5119   12.0495 C.3     1  UNL1        0.0937
      5 C          62.8756   83.8247   13.3164 C.3     1  UNL1        0.0200
      6 C          62.3046   82.4837   12.9619 C.3     1  UNL1        0.0018
      7 C          63.0039   82.6778   14.2746 C.3     1  UNL1        0.0018
      8 C          63.5916   84.8260   14.1735 C.3     1  UNL1        0.0232
      9 C          63.6185   86.1321   13.4364 C.3     1  UNL1        0.0952
     10 C          62.4155   84.2534    6.6605 C.3     1  UNL1        0.0521
     11 C          61.8430   85.2764    7.5962 C.ar    1  UNL1        0.0595
     12 C          60.5481   85.9563    7.2628 C.ar    1  UNL1        0.0149
     13 C          59.9754   86.9793    8.1985 C.ar    1  UNL1        0.0059
     14 C          60.6977   87.3225    9.4675 C.ar    1  UNL1        0.0579
     15 C          61.9926   86.6427    9.8009 C.ar    1  UNL1        0.1372
     16 N          62.5652   85.6197    8.8653 N.ar    1  UNL1       -0.2450
     17 C          60.1250   88.3455   10.4032 C.ar    1  UNL1        0.1639
     18 N          59.5296   87.9157   11.7112 N.ar    1  UNL1       -0.2250
     19 C          58.9569   88.9386   12.6469 C.ar    1  UNL1        0.1022
     20 C          58.9797   90.3915   12.2746 C.ar    1  UNL1        0.0414
     21 C          59.5751   90.8214   10.9667 C.ar    1  UNL1        0.1022
     22 N          60.1477   89.7984   10.0310 N.ar    1  UNL1       -0.2250
     23 C          64.2364   87.4083   13.9259 C.3     1  UNL1        0.1082
     24 N          63.4380   88.6782   13.9213 N.pl3   1  UNL1       -0.3167
     25 H          62.4883   88.6635   14.1806 H       1  UNL1        0.1482
     26 C          64.0864   89.9703   13.5215 C.ar    1  UNL1        0.1285
     27 C          65.2129   90.5287   14.3395 C.ar    1  UNL1        0.0340
     28 C          65.8614   91.8209   13.9397 C.ar    1  UNL1        0.0083
     29 C          65.3833   92.5546   12.7220 C.ar    1  UNL1        0.0906
     30 C          64.2567   91.9962   11.9039 C.ar    1  UNL1        0.1041
     31 N          63.6083   90.7041   12.3037 N.ar    1  UNL1       -0.2294
     32 C          66.0317   93.8468   12.3222 C.3     1  UNL1        0.4200
     33 F          66.6802   95.1390   11.9224 F       1  UNL1       -0.1658
     34 F          65.4527   93.7112   10.9451 F       1  UNL1       -0.1658
     35 F          66.6107   93.9824   13.6993 F       1  UNL1       -0.1658
@<TRIPOS>BOND
     1    10    11    1
     2    11    12   ar
     3    12    13   ar
     4    13    14   ar
     5    14    17    1
     6    17    18   ar
     7    18    19   ar
     8    19    20   ar
     9    20    21   ar
    10    21    22   ar
    11    14    15   ar
    12    15     1    1
    13     1     2    2
    14     1     3   am
    15     3     4    1
    16     4     5    1
    17     5     6    1
    18     6     7    1
    19     5     8    1
    20     8     9    1
    21     9    23    1
    22    23    24    1
    23    24    26    1
    24    26    27   ar
    25    27    28   ar
    26    28    29   ar
    27    29    32    1
    28    32    33    1
    29    32    34    1
    30    32    35    1
    31    29    30   ar
    32    30    31   ar
    33    15    16   ar
    34    16    11   ar
    35    22    17   ar
    36     9     3    1
    37    31    26   ar
    38     7     5    1
    39    24    25    1
@<TRIPOS>MOLECULE
*****
 35 39 0 0 0
SMALL
GASTEIGER

@<TRIPOS>ATOM
      1 C          62.4022   86.9804   11.5365 C.2     1  UNL1        0.2668
      2 O          62.3118   85.8961   12.5692 O.2     1  UNL1       -0.2683
      3 N          63.0194   88.3016   11.8883 N.am    1  UNL1       -0.2748
      4 C          63.1783   89.4739   10.9661 C.3     1  UNL1        0.0937
      5 C          63.8431   90.5792   11.7319 C.3     1  UNL1        0.0200
      6 C          63.8639   91.5634   10.6002 C.3     1  UNL1        0.0018
      7 C          64.4305   91.9442   11.9358 C.3     1  UNL1        0.0018
      8 C          64.0951   90.0899   13.1273 C.3     1  UNL1        0.0232
      9 C          63.5860   88.6823   13.2240 C.3     1  UNL1        0.0952
     10 C          62.6692   84.4871    6.9855 C.3     1  UNL1        0.0521
     11 C          62.0089   85.4969    7.8768 C.ar    1  UNL1        0.0595
     12 C          60.8217   86.2698    7.3836 C.ar    1  UNL1        0.0149
     13 C          60.1613   87.2796    8.2748 C.ar    1  UNL1        0.0059
     14 C          60.6882   87.5165    9.6591 C.ar    1  UNL1        0.0579
     15 C          61.8754   86.7435   10.1522 C.ar    1  UNL1        0.1372
     16 N          62.5357   85.7337    9.2611 N.ar    1  UNL1       -0.2450
     17 C          60.0278   88.5263   10.5502 C.ar    1  UNL1        0.1639
     18 N          59.3884   88.0887   11.8347 N.ar    1  UNL1       -0.2250
     19 C          58.7280   89.0984   12.7259 C.ar    1  UNL1        0.1022
     20 C          58.7070   90.5458   12.3326 C.ar    1  UNL1        0.0414
     21 C          59.3464   90.9834   11.0483 C.ar    1  UNL1        0.1022
     22 N          60.0067   89.9736   10.1571 N.ar    1  UNL1       -0.2250
     23 C          63.6349   87.8088   14.4424 C.3     1  UNL1        0.1082
     24 N          64.6001   86.6622   14.5050 N.pl3   1  UNL1       -0.3167
     25 H          65.5605   86.8339   14.6374 H       1  UNL1        0.1482
     26 C          64.1022   85.2542   14.3657 C.ar    1  UNL1        0.1285
     27 C          64.7769   84.3107   13.4146 C.ar    1  UNL1        0.0340
     28 C          64.2789   82.9026   13.2753 C.ar    1  UNL1        0.0083
     29 C          63.1063   82.4381   14.0871 C.ar    1  UNL1        0.0906
     30 C          62.4315   83.3816   15.0382 C.ar    1  UNL1        0.1041
     31 N          62.9295   84.7897   15.1775 N.ar    1  UNL1       -0.2294
     32 C          62.6083   81.0301   13.9478 C.3     1  UNL1        0.4200
     33 F          62.1103   79.6219   13.8085 F       1  UNL1       -0.1658
     34 F          61.2977   81.4334   14.5557 F       1  UNL1       -0.1658
     35 F          63.9189   80.6266   13.3399 F       1  UNL1       -0.1658
@<TRIPOS>BOND
     1    10    11    1
     2    11    12   ar
     3    12    13   ar
     4    13    14   ar
     5    14    17    1
     6    17    18   ar
     7    18    19   ar
     8    19    20   ar
     9    20    21   ar
    10    21    22   ar
    11    14    15   ar
    12    15     1    1
    13     1     2    2
    14     1     3   am
    15     3     4    1
    16     4     5    1
    17     5     6    1
    18     6     7    1
    19     5     8    1
    20     8     9    1
    21     9    23    1
    22    23    24    1
    23    24    26    1
    24    26    27   ar
    25    27    28   ar
    26    28    29   ar
    27    29    32    1
    28    32    33    1
    29    32    34    1
    30    32    35    1
    31    29    30   ar
    32    30    31   ar
    33    15    16   ar
    34    16    11   ar
    35    22    17   ar
    36     9     3    1
    37    31    26   ar
    38     7     5    1
    39    24    25    1
@<TRIPOS>MOLECULE
*****
 35 39 0 0 0
SMALL
GASTEIGER

@<TRIPOS>ATOM
      1 C          60.8995   88.5748   11.1469 C.2     1  UNL1        0.2668
      2 O          60.1624   87.9780   12.3091 O.2     1  UNL1       -0.2683
      3 N          61.9633   89.6057   11.3829 N.am    1  UNL1       -0.2748
      4 C          62.7803   90.2876   10.3258 C.3     1  UNL1        0.0937
      5 C          63.7187   91.2390   11.0071 C.3     1  UNL1        0.0200
      6 C          64.3679   91.7440    9.7527 C.3     1  UNL1        0.0018
      7 C          64.8014   92.2741   11.0873 C.3     1  UNL1        0.0018
      8 C          63.4817   91.1451   12.4853 C.3     1  UNL1        0.0232
      9 C          62.3968   90.1357   12.7176 C.3     1  UNL1        0.0952
     10 C          58.6792   89.5182    6.5447 C.3     1  UNL1        0.0521
     11 C          59.4628   88.6124    7.4477 C.ar    1  UNL1        0.0595
     12 C          59.9198   87.2722    6.9525 C.ar    1  UNL1        0.0149
     13 C          60.7034   86.3663    7.8554 C.ar    1  UNL1        0.0059
     14 C          61.0299   86.8004    9.2535 C.ar    1  UNL1        0.0579
     15 C          60.5730   88.1406    9.7488 C.ar    1  UNL1        0.1372
     16 N          59.7894   89.0465    8.8459 N.ar    1  UNL1       -0.2450
     17 C          61.8135   85.8945   10.1565 C.ar    1  UNL1        0.1639
     18 N          61.6068   85.9535   11.6410 N.ar    1  UNL1       -0.2250
     19 C          62.3903   85.0476   12.5440 C.ar    1  UNL1        0.1022
     20 C          63.3806   84.0826   11.9624 C.ar    1  UNL1        0.0414
     21 C          63.5872   84.0235   10.4779 C.ar    1  UNL1        0.1022
     22 N          62.8037   84.9295    9.5750 N.ar    1  UNL1       -0.2250
     23 C          61.8426   89.7279   14.0505 C.3     1  UNL1        0.1082
     24 N          62.7598   89.5658   15.2262 N.pl3   1  UNL1       -0.3167
     25 H          62.5825   88.8665   15.8962 H       1  UNL1        0.1482
     26 C          63.9473   90.4690   15.3813 C.ar    1  UNL1        0.1285
     27 C          65.2004   90.2009   14.6016 C.ar    1  UNL1        0.0340
     28 C          66.3879   91.1041   14.7567 C.ar    1  UNL1        0.0083
     29 C          66.3222   92.2755   15.6913 C.ar    1  UNL1        0.0906
     30 C          65.0691   92.5436   16.4710 C.ar    1  UNL1        0.1041
     31 N          63.8816   91.6404   16.3160 N.ar    1  UNL1       -0.2294
     32 C          67.5097   93.1787   15.8464 C.3     1  UNL1        0.4200
     33 F          68.6972   94.0820   16.0014 F       1  UNL1       -0.1658
     34 F          68.0875   92.2439   16.8673 F       1  UNL1       -0.1658
     35 F          66.9320   94.1136   14.8255 F       1  UNL1       -0.1658
@<TRIPOS>BOND
     1    10    11    1
     2    11    12   ar
     3    12    13   ar
     4    13    14   ar
     5    14    17    1
     6    17    18   ar
     7    18    19   ar
     8    19    20   ar
     9    20    21   ar
    10    21    22   ar
    11    14    15   ar
    12    15     1    1
    13     1     2    2
    14     1     3   am
    15     3     4    1
    16     4     5    1
    17     5     6    1
    18     6     7    1
    19     5     8    1
    20     8     9    1
    21     9    23    1
    22    23    24    1
    23    24    26    1
    24    26    27   ar
    25    27    28   ar
    26    28    29   ar
    27    29    32    1
    28    32    33    1
    29    32    34    1
    30    32    35    1
    31    29    30   ar
    32    30    31   ar
    33    15    16   ar
    34    16    11   ar
    35    22    17   ar
    36     9     3    1
    37    31    26   ar
    38     7     5    1
    39    24    25    1
@<TRIPOS>MOLECULE
*****
 35 39 0 0 0
SMALL
GASTEIGER

@<TRIPOS>ATOM
      1 C          64.3752   91.3530   12.8703 C.2     1  UNL1        0.2668
      2 O          63.8590   92.1552   11.7126 O.2     1  UNL1       -0.2683
      3 N          64.0419   89.8946   12.9802 N.am    1  UNL1       -0.2748
      4 C          64.4838   88.9693   14.0749 C.3     1  UNL1        0.0937
      5 C          63.9232   87.6083   13.7859 C.3     1  UNL1        0.0200
      6 C          64.5079   86.9382   14.9937 C.3     1  UNL1        0.0018
      7 C          63.6742   86.1491   14.0283 C.3     1  UNL1        0.0018
      8 C          63.1347   87.6926   12.5126 C.3     1  UNL1        0.0232
      9 C          63.2080   89.1056   12.0146 C.3     1  UNL1        0.0952
     10 C          65.2891   92.4954   17.8563 C.3     1  UNL1        0.0521
     11 C          65.6816   92.5804   16.4110 C.ar    1  UNL1        0.0595
     12 C          66.9236   93.3216   16.0135 C.ar    1  UNL1        0.0149
     13 C          67.3162   93.4066   14.5683 C.ar    1  UNL1        0.0059
     14 C          66.4667   92.7505   13.5206 C.ar    1  UNL1        0.0579
     15 C          65.2247   92.0092   13.9181 C.ar    1  UNL1        0.1372
     16 N          64.8321   91.9242   15.3633 N.ar    1  UNL1       -0.2450
     17 C          66.8593   92.8355   12.0754 C.ar    1  UNL1        0.1639
     18 N          67.8489   91.8611   11.5084 N.ar    1  UNL1       -0.2250
     19 C          68.2414   91.9461   10.0632 C.ar    1  UNL1        0.1022
     20 C          67.6445   93.0054    9.1849 C.ar    1  UNL1        0.0414
     21 C          66.6549   93.9798    9.7518 C.ar    1  UNL1        0.1022
     22 N          66.2624   93.8947   11.1971 N.ar    1  UNL1       -0.2250
     23 C          62.5612   89.6364   10.7697 C.3     1  UNL1        0.1082
     24 N          61.2787   89.0351   10.2761 N.pl3   1  UNL1       -0.3167
     25 H          60.4157   89.3941   10.5851 H       1  UNL1        0.1482
     26 C          61.3112   87.8868    9.3116 C.ar    1  UNL1        0.1285
     27 C          62.5106   86.9877    9.2559 C.ar    1  UNL1        0.0340
     28 C          62.5431   85.8394    8.2914 C.ar    1  UNL1        0.0083
     29 C          61.3761   85.5902    7.3825 C.ar    1  UNL1        0.0906
     30 C          60.1767   86.4892    7.4382 C.ar    1  UNL1        0.1041
     31 N          60.1442   87.6376    8.4027 N.ar    1  UNL1       -0.2294
     32 C          61.4086   84.4419    6.4180 C.3     1  UNL1        0.4200
     33 F          61.4410   83.2935    5.4535 F       1  UNL1       -0.1658
     34 F          62.9052   84.5272    6.3668 F       1  UNL1       -0.1658
     35 F          59.9118   84.3565    6.4692 F       1  UNL1       -0.1658
@<TRIPOS>BOND
     1    10    11    1
     2    11    12   ar
     3    12    13   ar
     4    13    14   ar
     5    14    17    1
     6    17    18   ar
     7    18    19   ar
     8    19    20   ar
     9    20    21   ar
    10    21    22   ar
    11    14    15   ar
    12    15     1    1
    13     1     2    2
    14     1     3   am
    15     3     4    1
    16     4     5    1
    17     5     6    1
    18     6     7    1
    19     5     8    1
    20     8     9    1
    21     9    23    1
    22    23    24    1
    23    24    26    1
    24    26    27   ar
    25    27    28   ar
    26    28    29   ar
    27    29    32    1
    28    32    33    1
    29    32    34    1
    30    32    35    1
    31    29    30   ar
    32    30    31   ar
    33    15    16   ar
    34    16    11   ar
    35    22    17   ar
    36     9     3    1
    37    31    26   ar
    38     7     5    1
    39    24    25    1
@<TRIPOS>MOLECULE
*****
 35 39 0 0 0
SMALL
GASTEIGER

@<TRIPOS>ATOM
      1 C          63.1534   88.0344   12.0269 C.2     1  UNL1        0.2668
      2 O          63.1552   88.5518   10.6189 O.2     1  UNL1       -0.2683
      3 N          63.2967   88.9875   13.1763 N.am    1  UNL1       -0.2748
      4 C          63.3124   88.6193   14.6303 C.3     1  UNL1        0.0937
      5 C          63.4749   89.8803   15.4262 C.3     1  UNL1        0.0200
      6 C          63.4558   89.2196   16.7726 C.3     1  UNL1        0.0018
      7 C          63.6087   90.7082   16.6698 C.3     1  UNL1        0.0018
      8 C          63.5598   91.0279   14.4640 C.3     1  UNL1        0.0232
      9 C          63.4496   90.4762   13.0735 C.3     1  UNL1        0.0952
     10 C          64.4123   83.8009   14.7641 C.3     1  UNL1        0.0521
     11 C          63.6377   84.4473   13.6541 C.ar    1  UNL1        0.0595
     12 C          62.7179   83.6233   12.8026 C.ar    1  UNL1        0.0149
     13 C          61.9433   84.2696   11.6925 C.ar    1  UNL1        0.0059
     14 C          62.0884   85.7400   11.4340 C.ar    1  UNL1        0.0579
     15 C          63.0082   86.5641   12.2855 C.ar    1  UNL1        0.1372
     16 N          63.7829   85.9177   13.3955 N.ar    1  UNL1       -0.2450
     17 C          61.3138   86.3864   10.3240 C.ar    1  UNL1        0.1639
     18 N          61.5300   85.9496    8.9053 N.ar    1  UNL1       -0.2250
     19 C          60.7555   86.5959    7.7952 C.ar    1  UNL1        0.1022
     20 C          59.7646   87.6790    8.1038 C.ar    1  UNL1        0.0414
     21 C          59.5484   88.1157    9.5224 C.ar    1  UNL1        0.1022
     22 N          60.3230   87.4694   10.6324 N.ar    1  UNL1       -0.2250
     23 C          63.4860   91.2731   11.8033 C.3     1  UNL1        0.1082
     24 N          64.7516   91.9616   11.3858 N.pl3   1  UNL1       -0.3167
     25 H          64.9017   92.1838   10.4385 H       1  UNL1        0.1482
     26 C          65.7886   92.3116   12.4116 C.ar    1  UNL1        0.1285
     27 C          67.0935   91.5725   12.4413 C.ar    1  UNL1        0.0340
     28 C          68.1304   91.9225   13.4671 C.ar    1  UNL1        0.0083
     29 C          67.8624   93.0115   14.4632 C.ar    1  UNL1        0.0906
     30 C          66.5574   93.7506   14.4335 C.ar    1  UNL1        0.1041
     31 N          65.5205   93.4006   13.4077 N.ar    1  UNL1       -0.2294
     32 C          68.8993   93.3615   15.4890 C.3     1  UNL1        0.4200
     33 F          69.9362   93.7115   16.5149 F       1  UNL1       -0.1658
     34 F          69.9455   92.6674   14.6683 F       1  UNL1       -0.1658
     35 F          67.8531   94.0557   16.3098 F       1  UNL1       -0.1658
@<TRIPOS>BOND
     1    10    11    1
     2    11    12   ar
     3    12    13   ar
     4    13    14   ar
     5    14    17    1
     6    17    18   ar
     7    18    19   ar
     8    19    20   ar
     9    20    21   ar
    10    21    22   ar
    11    14    15   ar
    12    15     1    1
    13     1     2    2
    14     1     3   am
    15     3     4    1
    16     4     5    1
    17     5     6    1
    18     6     7    1
    19     5     8    1
    20     8     9    1
    21     9    23    1
    22    23    24    1
    23    24    26    1
    24    26    27   ar
    25    27    28   ar
    26    28    29   ar
    27    29    32    1
    28    32    33    1
    29    32    34    1
    30    32    35    1
    31    29    30   ar
    32    30    31   ar
    33    15    16   ar
    34    16    11   ar
    35    22    17   ar
    36     9     3    1
    37    31    26   ar
    38     7     5    1
    39    24    25    1
@<TRIPOS>MOLECULE
*****
 35 39 0 0 0
SMALL
GASTEIGER

@<TRIPOS>ATOM
      1 C          63.3898   87.6470   13.3356 C.2     1  UNL1        0.2668
      2 O          63.6814   88.8719   12.5203 O.2     1  UNL1       -0.2683
      3 N          63.2606   87.7516   14.8264 N.am    1  UNL1       -0.2748
      4 C          62.9726   86.6200   15.7679 C.3     1  UNL1        0.0937
      5 C          62.9306   87.1751   17.1607 C.3     1  UNL1        0.0200
      6 C          62.6387   85.8705   17.8408 C.3     1  UNL1        0.0018
      7 C          62.7747   87.1250   18.6518 C.3     1  UNL1        0.0018
      8 C          63.1927   88.6499   17.0800 C.3     1  UNL1        0.0232
      9 C          63.3966   89.0062   15.6373 C.3     1  UNL1        0.0952
     10 C          64.5646   82.5965   13.0003 C.3     1  UNL1        0.0521
     11 C          63.8149   83.7924   12.4925 C.ar    1  UNL1        0.0595
     12 C          62.9028   83.6587   11.3092 C.ar    1  UNL1        0.0149
     13 C          62.1531   84.8545   10.8013 C.ar    1  UNL1        0.0059
     14 C          62.3154   86.1839   11.4768 C.ar    1  UNL1        0.0579
     15 C          63.2275   86.3176   12.6601 C.ar    1  UNL1        0.1372
     16 N          63.9772   85.1218   13.1680 N.ar    1  UNL1       -0.2450
     17 C          61.5657   87.3797   10.9689 C.ar    1  UNL1        0.1639
     18 N          60.3989   87.9179   11.7431 N.ar    1  UNL1       -0.2250
     19 C          59.6492   89.1136   11.2353 C.ar    1  UNL1        0.1022
     20 C          60.0661   89.7713    9.9532 C.ar    1  UNL1        0.0414
     21 C          61.2327   89.2332    9.1791 C.ar    1  UNL1        0.1022
     22 N          61.9825   88.0374    9.6869 N.ar    1  UNL1       -0.2250
     23 C          63.6858   90.3764   15.0999 C.3     1  UNL1        0.1082
     24 N          64.8015   90.5766   14.1173 N.pl3   1  UNL1       -0.3167
     25 H          64.7581   90.1522   13.2301 H       1  UNL1        0.1482
     26 C          65.9832   91.4234   14.4867 C.ar    1  UNL1        0.1285
     27 C          65.9989   92.1602   15.7932 C.ar    1  UNL1        0.0340
     28 C          67.1806   93.0070   16.1626 C.ar    1  UNL1        0.0083
     29 C          68.3466   93.1170   15.2254 C.ar    1  UNL1        0.0906
     30 C          68.3309   92.3803   13.9189 C.ar    1  UNL1        0.1041
     31 N          67.1492   91.5334   13.5495 N.ar    1  UNL1       -0.2294
     32 C          69.5283   93.9638   15.5947 C.3     1  UNL1        0.4200
     33 F          70.7101   94.8107   15.9641 F       1  UNL1       -0.1658
     34 F          70.4001   93.1401   14.6939 F       1  UNL1       -0.1658
     35 F          68.6565   94.7876   16.4955 F       1  UNL1       -0.1658
@<TRIPOS>BOND
     1    10    11    1
     2    11    12   ar
     3    12    13   ar
     4    13    14   ar
     5    14    17    1
     6    17    18   ar
     7    18    19   ar
     8    19    20   ar
     9    20    21   ar
    10    21    22   ar
    11    14    15   ar
    12    15     1    1
    13     1     2    2
    14     1     3   am
    15     3     4    1
    16     4     5    1
    17     5     6    1
    18     6     7    1
    19     5     8    1
    20     8     9    1
    21     9    23    1
    22    23    24    1
    23    24    26    1
    24    26    27   ar
    25    27    28   ar
    26    28    29   ar
    27    29    32    1
    28    32    33    1
    29    32    34    1
    30    32    35    1
    31    29    30   ar
    32    30    31   ar
    33    15    16   ar
    34    16    11   ar
    35    22    17   ar
    36     9     3    1
    37    31    26   ar
    38     7     5    1
    39    24    25    1
