@<TRIPOS>MOLECULE
*****
 39 41 0 0 0
SMALL
GASTEIGER

@<TRIPOS>ATOM
      1 C          62.5092   89.6632   11.6712 C.3     1  UNL1        0.1281
      2 C          62.8877   89.1824   13.0408 C.2     1  UNL1        0.2325
      3 O          62.3672   89.8925   14.2552 O.2     1  UNL1       -0.2742
      4 N          63.7865   87.9916   13.1958 N.am    1  UNL1       -0.3033
      5 H          64.1281   87.5256   12.3987 H       1  UNL1        0.1495
      6 C          64.1649   87.5109   14.5654 C.3     1  UNL1        0.0941
      7 C          64.7714   86.1503   14.7417 C.3     1  UNL1        0.0492
      8 C          64.0112   84.9294   14.3159 C.ar    1  UNL1       -0.0013
      9 C          63.5319   84.8001   12.9005 C.ar    1  UNL1       -0.0011
     10 C          62.7716   83.5791   12.4746 C.ar    1  UNL1        0.0204
     11 C          62.4907   82.4875   13.4642 C.ar    1  UNL1        0.0989
     12 N          62.9700   82.6168   14.8797 N.ar    1  UNL1       -0.2426
     13 C          63.7302   83.8378   15.3055 C.ar    1  UNL1        0.0946
     14 S          63.4724   90.4928   10.8748 S.3     1  UNL1       -0.1298
     15 C          63.6822   91.9372   11.2207 C.3     1  UNL1        0.0780
     16 C          64.8604   92.3453   12.0546 C.3     1  UNL1        0.0899
     17 C          66.7426   93.5604   10.7390 C.2     1  UNL1        0.4014
     18 O          67.1186   92.2657   10.0813 O.2     1  UNL1       -0.2264
     19 N          65.6135   93.6002   11.7257 N.am    1  UNL1       -0.2711
     20 H          65.3667   94.4498   12.1574 H       1  UNL1        0.1527
     21 O          67.4957   94.8152   10.4101 O.3     1  UNL1       -0.4419
     22 C          66.5346   96.6879   10.6730 C.3     1  UNL1        0.0437
     23 C          66.8898   95.8346    9.4916 C.3     1  UNL1        0.1378
     24 C          67.2450   94.9813    8.3102 C.3     1  UNL1        0.0437
     25 C          66.2839   96.8541    8.5731 C.3     1  UNL1        0.0437
     26 C          65.2855   91.4984   13.2174 C.3     1  UNL1        0.0469
     27 C          66.4190   91.9423   14.0937 C.ar    1  UNL1       -0.0205
     28 C          66.1374   92.5225   15.4481 C.ar    1  UNL1       -0.0042
     29 C          67.2709   92.9664   16.3244 C.ar    1  UNL1       -0.0003
     30 C          68.6862   92.8302   15.8464 C.ar    1  UNL1       -0.0000
     31 C          68.9679   92.2501   14.4921 C.ar    1  UNL1       -0.0003
     32 C          67.8343   91.8062   13.6158 C.ar    1  UNL1       -0.0042
     33 C          61.1677   89.3144   11.0979 C.3     1  UNL1        0.0463
     34 C          61.0527   88.2381   10.0594 C.ar    1  UNL1       -0.0208
     35 C          62.0006   87.0758   10.0757 C.ar    1  UNL1       -0.0042
     36 C          61.8855   85.9996    9.0372 C.ar    1  UNL1       -0.0003
     37 C          60.8225   86.0857    7.9825 C.ar    1  UNL1       -0.0000
     38 C          59.8746   87.2481    7.9662 C.ar    1  UNL1       -0.0003
     39 C          59.9896   88.3243    9.0046 C.ar    1  UNL1       -0.0042
@<TRIPOS>BOND
     1    22    23    1
     2    23    24    1
     3    23    25    1
     4    23    21    1
     5    21    17    1
     6    17    18    2
     7    17    19   am
     8    19    16    1
     9    16    15    1
    10    15    14    1
    11    14     1    1
    12     1    33    1
    13    33    34    1
    14    34    35   ar
    15    35    36   ar
    16    36    37   ar
    17    37    38   ar
    18    38    39   ar
    19     1     2    1
    20     2     3    2
    21     2     4   am
    22     4     6    1
    23     6     7    1
    24     7     8    1
    25     8     9   ar
    26     9    10   ar
    27    10    11   ar
    28    11    12   ar
    29    12    13   ar
    30    16    26    1
    31    26    27    1
    32    27    28   ar
    33    28    29   ar
    34    29    30   ar
    35    30    31   ar
    36    31    32   ar
    37    39    34   ar
    38    13     8   ar
    39    32    27   ar
    40    19    20    1
    41     4     5    1
@<TRIPOS>MOLECULE
*****
 39 41 0 0 0
SMALL
GASTEIGER

@<TRIPOS>ATOM
      1 C          64.0519   89.8899   14.6026 C.3     1  UNL1        0.1281
      2 C          63.8896   88.5414   15.2394 C.2     1  UNL1        0.2325
      3 O          63.2088   88.4175   16.5702 O.2     1  UNL1       -0.2742
      4 N          64.4082   87.3170   14.5453 N.am    1  UNL1       -0.3033
      5 H          64.8551   87.3983   13.6718 H       1  UNL1        0.1495
      6 C          64.2459   85.9686   15.1820 C.3     1  UNL1        0.0941
      7 C          64.8260   84.7528   14.5222 C.3     1  UNL1        0.0492
      8 C          63.9223   83.6533   14.0486 C.ar    1  UNL1       -0.0013
      9 C          64.1328   83.0396   12.6963 C.ar    1  UNL1       -0.0011
     10 C          63.2291   81.9400   12.2227 C.ar    1  UNL1        0.0204
     11 C          62.1148   81.4542   13.1015 C.ar    1  UNL1        0.0989
     12 N          61.9043   82.0680   14.4539 N.ar    1  UNL1       -0.2426
     13 C          62.8080   83.1675   14.9275 C.ar    1  UNL1        0.0946
     14 S          63.8188   90.0570   13.1303 S.3     1  UNL1       -0.1298
     15 C          63.7681   91.4309   12.5302 C.3     1  UNL1        0.0780
     16 C          64.0061   91.6167   11.0609 C.3     1  UNL1        0.0899
     17 C          66.0861   93.1420   11.3729 C.2     1  UNL1        0.4014
     18 O          65.5134   93.6596   12.6592 O.2     1  UNL1       -0.2264
     19 N          65.3324   92.1206   10.5738 N.am    1  UNL1       -0.2711
     20 H          65.7082   91.7808    9.7296 H       1  UNL1        0.1527
     21 O          67.4123   93.6459   10.8859 O.3     1  UNL1       -0.4419
     22 C          66.7610   95.5229   10.1425 C.3     1  UNL1        0.0437
     23 C          67.5069   94.3554    9.5677 C.3     1  UNL1        0.1378
     24 C          68.2528   93.1878    8.9929 C.3     1  UNL1        0.0437
     25 C          67.6016   95.0648    8.2495 C.3     1  UNL1        0.0437
     26 C          62.9180   91.2987   10.0787 C.3     1  UNL1        0.0469
     27 C          61.9902   90.1480   10.3338 C.ar    1  UNL1       -0.0205
     28 C          60.6641   90.3856   10.9934 C.ar    1  UNL1       -0.0042
     29 C          59.7364   89.2349   11.2485 C.ar    1  UNL1       -0.0003
     30 C          60.1347   87.8465   10.8440 C.ar    1  UNL1       -0.0000
     31 C          61.4607   87.6088   10.1844 C.ar    1  UNL1       -0.0003
     32 C          62.3885   88.7595    9.9293 C.ar    1  UNL1       -0.0042
     33 C          64.4473   91.0712   15.4382 C.3     1  UNL1        0.0463
     34 C          65.8315   91.6385   15.3275 C.ar    1  UNL1       -0.0208
     35 C          66.2614   92.7504   16.2379 C.ar    1  UNL1       -0.0042
     36 C          67.6455   93.3177   16.1272 C.ar    1  UNL1       -0.0003
     37 C          68.5998   92.7731   15.1061 C.ar    1  UNL1       -0.0000
     38 C          68.1699   91.6613   14.1956 C.ar    1  UNL1       -0.0003
     39 C          66.7858   91.0940   14.3063 C.ar    1  UNL1       -0.0042
@<TRIPOS>BOND
     1    22    23    1
     2    23    24    1
     3    23    25    1
     4    23    21    1
     5    21    17    1
     6    17    18    2
     7    17    19   am
     8    19    16    1
     9    16    15    1
    10    15    14    1
    11    14     1    1
    12     1    33    1
    13    33    34    1
    14    34    35   ar
    15    35    36   ar
    16    36    37   ar
    17    37    38   ar
    18    38    39   ar
    19     1     2    1
    20     2     3    2
    21     2     4   am
    22     4     6    1
    23     6     7    1
    24     7     8    1
    25     8     9   ar
    26     9    10   ar
    27    10    11   ar
    28    11    12   ar
    29    12    13   ar
    30    16    26    1
    31    26    27    1
    32    27    28   ar
    33    28    29   ar
    34    29    30   ar
    35    30    31   ar
    36    31    32   ar
    37    39    34   ar
    38    13     8   ar
    39    32    27   ar
    40    19    20    1
    41     4     5    1
@<TRIPOS>MOLECULE
*****
 39 41 0 0 0
SMALL
GASTEIGER

@<TRIPOS>ATOM
      1 C          61.2673   87.5626   10.8121 C.3     1  UNL1        0.1281
      2 C          61.6710   88.9501   11.2148 C.2     1  UNL1        0.2325
      3 O          61.3080   89.4722   12.5734 O.2     1  UNL1       -0.2742
      4 N          62.4376   89.8154   10.2590 N.am    1  UNL1       -0.3033
      5 H          62.6758   89.4727    9.3674 H       1  UNL1        0.1495
      6 C          62.8412   91.2027   10.6618 C.3     1  UNL1        0.0941
      7 C          64.2317   91.6905   10.3815 C.3     1  UNL1        0.0492
      8 C          65.0277   92.3517   11.4673 C.ar    1  UNL1       -0.0013
      9 C          65.1399   91.7039   12.8156 C.ar    1  UNL1       -0.0011
     10 C          65.9359   92.3652   13.9015 C.ar    1  UNL1        0.0204
     11 C          66.6198   93.6742   13.6391 C.ar    1  UNL1        0.0989
     12 N          66.5076   94.3220   12.2908 N.ar    1  UNL1       -0.2426
     13 C          65.7116   93.6607   11.2050 C.ar    1  UNL1        0.0946
     14 S          61.6120   86.3966   11.6904 S.3     1  UNL1       -0.1298
     15 C          63.0445   86.1145   12.0346 C.3     1  UNL1        0.0780
     16 C          63.3797   85.3456   13.2782 C.3     1  UNL1        0.0899
     17 C          63.1856   83.1768   14.6954 C.2     1  UNL1        0.4014
     18 O          64.2558   83.6830   15.6166 O.2     1  UNL1       -0.2264
     19 N          62.7475   84.0081   13.5262 N.am    1  UNL1       -0.2711
     20 H          62.0452   83.6759   12.9216 H       1  UNL1        0.1527
     21 O          62.5535   81.8393   14.9435 O.3     1  UNL1       -0.4419
     22 C          60.9426   80.7880   14.0492 C.3     1  UNL1        0.0437
     23 C          62.4240   80.8514   13.8222 C.3     1  UNL1        0.1378
     24 C          63.9054   80.9148   13.5953 C.3     1  UNL1        0.0437
     25 C          62.2945   79.8635   12.7009 C.3     1  UNL1        0.0437
     26 C          64.3469   85.9142   14.2737 C.3     1  UNL1        0.0469
     27 C          63.9679   87.1181   15.0843 C.ar    1  UNL1       -0.0205
     28 C          63.3742   86.9454   16.4510 C.ar    1  UNL1       -0.0042
     29 C          62.9952   88.1493   17.2616 C.ar    1  UNL1       -0.0003
     30 C          63.2099   89.5258   16.7055 C.ar    1  UNL1       -0.0000
     31 C          63.8036   89.6984   15.3389 C.ar    1  UNL1       -0.0003
     32 C          64.1826   88.4946   14.5282 C.ar    1  UNL1       -0.0042
     33 C          60.5190   87.3413    9.5311 C.3     1  UNL1        0.0463
     34 C          61.0467   86.3761    8.5113 C.ar    1  UNL1       -0.0208
     35 C          62.4888   85.9646    8.5438 C.ar    1  UNL1       -0.0042
     36 C          63.0164   84.9994    7.5241 C.ar    1  UNL1       -0.0003
     37 C          62.1020   84.4456    6.4719 C.ar    1  UNL1       -0.0000
     38 C          60.6599   84.8570    6.4394 C.ar    1  UNL1       -0.0003
     39 C          60.1323   85.8223    7.4591 C.ar    1  UNL1       -0.0042
@<TRIPOS>BOND
     1    22    23    1
     2    23    24    1
     3    23    25    1
     4    23    21    1
     5    21    17    1
     6    17    18    2
     7    17    19   am
     8    19    16    1
     9    16    15    1
    10    15    14    1
    11    14     1    1
    12     1    33    1
    13    33    34    1
    14    34    35   ar
    15    35    36   ar
    16    36    37   ar
    17    37    38   ar
    18    38    39   ar
    19     1     2    1
    20     2     3    2
    21     2     4   am
    22     4     6    1
    23     6     7    1
    24     7     8    1
    25     8     9   ar
    26     9    10   ar
    27    10    11   ar
    28    11    12   ar
    29    12    13   ar
    30    16    26    1
    31    26    27    1
    32    27    28   ar
    33    28    29   ar
    34    29    30   ar
    35    30    31   ar
    36    31    32   ar
    37    39    34   ar
    38    13     8   ar
    39    32    27   ar
    40    19    20    1
    41     4     5    1
@<TRIPOS>MOLECULE
*****
 39 41 0 0 0
SMALL
GASTEIGER

@<TRIPOS>ATOM
      1 C          61.5433   88.4445   11.1375 C.3     1  UNL1        0.1281
      2 C          60.5318   89.1593   10.2913 C.2     1  UNL1        0.2325
      3 O          59.6320   90.1891   10.9075 O.2     1  UNL1       -0.2742
      4 N          60.4202   88.8442    8.8291 N.am    1  UNL1       -0.3033
      5 H          61.0108   88.1683    8.4247 H       1  UNL1        0.1495
      6 C          59.4087   89.5590    7.9830 C.3     1  UNL1        0.0941
      7 C          59.3509   89.3028    6.5061 C.3     1  UNL1        0.0492
      8 C          59.4764   90.4445    5.5414 C.ar    1  UNL1       -0.0013
      9 C          60.8104   90.7756    4.9408 C.ar    1  UNL1       -0.0011
     10 C          60.9360   91.9174    3.9760 C.ar    1  UNL1        0.0204
     11 C          59.7275   92.7279    3.6119 C.ar    1  UNL1        0.0989
     12 N          58.3935   92.3968    4.2125 N.ar    1  UNL1       -0.2426
     13 C          58.2679   91.2551    5.1772 C.ar    1  UNL1        0.0946
     14 S          62.7924   89.1524   11.5718 S.3     1  UNL1       -0.1298
     15 C          62.7277   90.1959   12.6475 C.3     1  UNL1        0.0780
     16 C          63.9703   90.5816   13.3939 C.3     1  UNL1        0.0899
     17 C          65.8917   92.3279   13.3000 C.2     1  UNL1        0.4014
     18 O          65.5151   92.8158   14.6676 O.2     1  UNL1       -0.2264
     19 N          65.1193   91.2108   12.6632 N.am    1  UNL1       -0.2711
     20 H          65.3665   90.8906   11.7656 H       1  UNL1        0.1527
     21 O          67.0407   92.9570   12.5693 O.3     1  UNL1       -0.4419
     22 C          66.0292   94.5468   11.5949 C.3     1  UNL1        0.0437
     23 C          66.8746   93.3928   11.1436 C.3     1  UNL1        0.1378
     24 C          67.7199   92.2388   10.6924 C.3     1  UNL1        0.0437
     25 C          66.7084   93.8286    9.7180 C.3     1  UNL1        0.0437
     26 C          64.0639   90.3382   14.8711 C.3     1  UNL1        0.0469
     27 C          63.8624   88.9560   15.4176 C.ar    1  UNL1       -0.0205
     28 C          64.3803   87.7679   14.6624 C.ar    1  UNL1       -0.0042
     29 C          64.1788   86.3857   15.2089 C.ar    1  UNL1       -0.0003
     30 C          63.4593   86.1914   16.5107 C.ar    1  UNL1       -0.0000
     31 C          62.9413   87.3794   17.2659 C.ar    1  UNL1       -0.0003
     32 C          63.1429   88.7617   16.7194 C.ar    1  UNL1       -0.0042
     33 C          61.3057   87.0219   11.5494 C.3     1  UNL1        0.0463
     34 C          62.1089   85.9173   10.9290 C.ar    1  UNL1       -0.0208
     35 C          62.6189   84.7919   11.7795 C.ar    1  UNL1       -0.0042
     36 C          63.4221   83.6874   11.1591 C.ar    1  UNL1       -0.0003
     37 C          63.7153   83.7083    9.6882 C.ar    1  UNL1       -0.0000
     38 C          63.2053   84.8336    8.8376 C.ar    1  UNL1       -0.0003
     39 C          62.4021   85.9381    9.4580 C.ar    1  UNL1       -0.0042
@<TRIPOS>BOND
     1    22    23    1
     2    23    24    1
     3    23    25    1
     4    23    21    1
     5    21    17    1
     6    17    18    2
     7    17    19   am
     8    19    16    1
     9    16    15    1
    10    15    14    1
    11    14     1    1
    12     1    33    1
    13    33    34    1
    14    34    35   ar
    15    35    36   ar
    16    36    37   ar
    17    37    38   ar
    18    38    39   ar
    19     1     2    1
    20     2     3    2
    21     2     4   am
    22     4     6    1
    23     6     7    1
    24     7     8    1
    25     8     9   ar
    26     9    10   ar
    27    10    11   ar
    28    11    12   ar
    29    12    13   ar
    30    16    26    1
    31    26    27    1
    32    27    28   ar
    33    28    29   ar
    34    29    30   ar
    35    30    31   ar
    36    31    32   ar
    37    39    34   ar
    38    13     8   ar
    39    32    27   ar
    40    19    20    1
    41     4     5    1
@<TRIPOS>MOLECULE
*****
 39 41 0 0 0
SMALL
GASTEIGER

@<TRIPOS>ATOM
      1 C          63.7346   90.1971   13.1360 C.3     1  UNL1        0.1281
      2 C          62.6530   89.3187   12.5803 C.2     1  UNL1        0.2325
      3 O          61.2130   89.7008   12.7547 O.2     1  UNL1       -0.2742
      4 N          63.0115   88.0583   11.8504 N.am    1  UNL1       -0.3033
      5 H          63.9566   87.8076   11.7359 H       1  UNL1        0.1495
      6 C          61.9299   87.1800   11.2947 C.3     1  UNL1        0.0941
      7 C          61.3036   87.5074    9.9716 C.3     1  UNL1        0.0492
      8 C          61.4012   86.5344    8.8343 C.ar    1  UNL1       -0.0013
      9 C          62.7035   85.8493    8.5432 C.ar    1  UNL1       -0.0011
     10 C          62.8012   84.8761    7.4058 C.ar    1  UNL1        0.0204
     11 C          61.5967   84.5882    6.5596 C.ar    1  UNL1        0.0989
     12 N          60.2944   85.2734    6.8507 N.ar    1  UNL1       -0.2426
     13 C          60.1967   86.2464    7.9880 C.ar    1  UNL1        0.0946
     14 S          63.9295   91.5816   12.5927 S.3     1  UNL1       -0.1298
     15 C          64.7128   91.7884   11.3302 C.3     1  UNL1        0.0780
     16 C          65.9952   92.5658   11.3622 C.3     1  UNL1        0.0899
     17 C          66.1680   95.1522   11.5385 C.2     1  UNL1        0.4014
     18 O          66.1836   95.0490   13.0349 O.2     1  UNL1       -0.2264
     19 N          66.0738   93.9105   10.7021 N.am    1  UNL1       -0.2711
     20 H          66.0635   93.9782    9.7200 H       1  UNL1        0.1527
     21 O          66.2465   96.4968   10.8786 O.3     1  UNL1       -0.4419
     22 C          64.5464   96.8539    9.6611 C.3     1  UNL1        0.0437
     23 C          66.0061   96.6235    9.4034 C.3     1  UNL1        0.1378
     24 C          67.4657   96.3931    9.1457 C.3     1  UNL1        0.0437
     25 C          65.7656   96.7502    7.9282 C.3     1  UNL1        0.0437
     26 C          67.1991   91.9985   12.0542 C.3     1  UNL1        0.0469
     27 C          67.4084   92.2462   13.5187 C.ar    1  UNL1       -0.0205
     28 C          68.7986   92.2938   14.0801 C.ar    1  UNL1       -0.0042
     29 C          69.0080   92.5414   15.5446 C.ar    1  UNL1       -0.0003
     30 C          67.8271   92.7415   16.4477 C.ar    1  UNL1       -0.0000
     31 C          66.4370   92.6939   15.8864 C.ar    1  UNL1       -0.0003
     32 C          66.2276   92.4463   14.4218 C.ar    1  UNL1       -0.0042
     33 C          64.6212   89.6910   14.2350 C.3     1  UNL1        0.0463
     34 C          64.1464   88.5878   15.1337 C.ar    1  UNL1       -0.0208
     35 C          63.3239   88.9097   16.3461 C.ar    1  UNL1       -0.0042
     36 C          62.8492   87.8065   17.2447 C.ar    1  UNL1       -0.0003
     37 C          63.1969   86.3815   16.9310 C.ar    1  UNL1       -0.0000
     38 C          64.0194   86.0596   15.7186 C.ar    1  UNL1       -0.0003
     39 C          64.4941   87.1628   14.8200 C.ar    1  UNL1       -0.0042
@<TRIPOS>BOND
     1    22    23    1
     2    23    24    1
     3    23    25    1
     4    23    21    1
     5    21    17    1
     6    17    18    2
     7    17    19   am
     8    19    16    1
     9    16    15    1
    10    15    14    1
    11    14     1    1
    12     1    33    1
    13    33    34    1
    14    34    35   ar
    15    35    36   ar
    16    36    37   ar
    17    37    38   ar
    18    38    39   ar
    19     1     2    1
    20     2     3    2
    21     2     4   am
    22     4     6    1
    23     6     7    1
    24     7     8    1
    25     8     9   ar
    26     9    10   ar
    27    10    11   ar
    28    11    12   ar
    29    12    13   ar
    30    16    26    1
    31    26    27    1
    32    27    28   ar
    33    28    29   ar
    34    29    30   ar
    35    30    31   ar
    36    31    32   ar
    37    39    34   ar
    38    13     8   ar
    39    32    27   ar
    40    19    20    1
    41     4     5    1
@<TRIPOS>MOLECULE
*****
 39 41 0 0 0
SMALL
GASTEIGER

@<TRIPOS>ATOM
      1 C          60.9718   87.8858   10.5018 C.3     1  UNL1        0.1281
      2 C          61.2552   89.3538   10.3806 C.2     1  UNL1        0.2325
      3 O          60.1438   90.3079   10.0570 O.2     1  UNL1       -0.2742
      4 N          62.6498   89.8677   10.5828 N.am    1  UNL1       -0.3033
      5 H          63.3792   89.2415   10.7952 H       1  UNL1        0.1495
      6 C          62.9330   91.3357   10.4616 C.3     1  UNL1        0.0941
      7 C          64.3504   91.8260   10.4308 C.3     1  UNL1        0.0492
      8 C          65.0361   92.2183   11.7058 C.ar    1  UNL1       -0.0013
      9 C          64.8187   91.4133   12.9527 C.ar    1  UNL1       -0.0011
     10 C          65.5045   91.8056   14.2278 C.ar    1  UNL1        0.0204
     11 C          66.4076   93.0029   14.2560 C.ar    1  UNL1        0.0989
     12 N          66.6250   93.8079   13.0091 N.ar    1  UNL1       -0.2426
     13 C          65.9392   93.4156   11.7340 C.ar    1  UNL1        0.0946
     14 S          61.4078   87.1364   11.7259 S.3     1  UNL1       -0.1298
     15 C          61.6343   85.6551   11.6575 C.3     1  UNL1        0.0780
     16 C          62.8936   85.0624   12.2168 C.3     1  UNL1        0.0899
     17 C          63.1521   85.7021   14.7216 C.2     1  UNL1        0.4014
     18 O          61.9186   84.9142   15.0501 O.2     1  UNL1       -0.2264
     19 N          63.6396   85.7761   13.3050 N.am    1  UNL1       -0.2711
     20 H          64.4492   86.2932   13.0894 H       1  UNL1        0.1527
     21 O          63.8980   86.4158   15.8098 O.3     1  UNL1       -0.4419
     22 C          62.8187   87.2861   17.4152 C.3     1  UNL1        0.0437
     23 C          63.5102   87.8132   16.1930 C.3     1  UNL1        0.1378
     24 C          64.2018   88.3403   14.9707 C.3     1  UNL1        0.0437
     25 C          63.1224   89.2106   16.5761 C.3     1  UNL1        0.0437
     26 C          63.4068   83.7559   11.6880 C.3     1  UNL1        0.0469
     27 C          62.9285   82.4655   12.2846 C.ar    1  UNL1       -0.0205
     28 C          62.2180   82.4678   13.6057 C.ar    1  UNL1       -0.0042
     29 C          61.7397   81.1774   14.2023 C.ar    1  UNL1       -0.0003
     30 C          61.9718   79.8846   13.4779 C.ar    1  UNL1       -0.0000
     31 C          62.6823   79.8822   12.1569 C.ar    1  UNL1       -0.0003
     32 C          63.1607   81.1727   11.5602 C.ar    1  UNL1       -0.0042
     33 C          60.2525   87.1672    9.3991 C.3     1  UNL1        0.0463
     34 C          61.0125   86.2696    8.4680 C.ar    1  UNL1       -0.0208
     35 C          60.3079   85.6113    7.3191 C.ar    1  UNL1       -0.0042
     36 C          61.0679   84.7138    6.3881 C.ar    1  UNL1       -0.0003
     37 C          62.5326   84.4746    6.6060 C.ar    1  UNL1       -0.0000
     38 C          63.2372   85.1329    7.7549 C.ar    1  UNL1       -0.0003
     39 C          62.4772   86.0304    8.6859 C.ar    1  UNL1       -0.0042
@<TRIPOS>BOND
     1    22    23    1
     2    23    24    1
     3    23    25    1
     4    23    21    1
     5    21    17    1
     6    17    18    2
     7    17    19   am
     8    19    16    1
     9    16    15    1
    10    15    14    1
    11    14     1    1
    12     1    33    1
    13    33    34    1
    14    34    35   ar
    15    35    36   ar
    16    36    37   ar
    17    37    38   ar
    18    38    39   ar
    19     1     2    1
    20     2     3    2
    21     2     4   am
    22     4     6    1
    23     6     7    1
    24     7     8    1
    25     8     9   ar
    26     9    10   ar
    27    10    11   ar
    28    11    12   ar
    29    12    13   ar
    30    16    26    1
    31    26    27    1
    32    27    28   ar
    33    28    29   ar
    34    29    30   ar
    35    30    31   ar
    36    31    32   ar
    37    39    34   ar
    38    13     8   ar
    39    32    27   ar
    40    19    20    1
    41     4     5    1
@<TRIPOS>MOLECULE
*****
 39 41 0 0 0
SMALL
GASTEIGER

@<TRIPOS>ATOM
      1 C          63.8658   89.3286   13.3293 C.3     1  UNL1        0.1281
      2 C          64.0954   90.6379   12.6342 C.2     1  UNL1        0.2325
      3 O          63.2103   91.0473   11.4945 O.2     1  UNL1       -0.2742
      4 N          65.2101   91.5377   13.0789 N.am    1  UNL1       -0.3033
      5 H          65.7910   91.2690   13.8269 H       1  UNL1        0.1495
      6 C          65.4397   92.8469   12.3838 C.3     1  UNL1        0.0941
      7 C          66.4975   92.9592   11.3262 C.3     1  UNL1        0.0492
      8 C          66.6868   94.2518   10.5890 C.ar    1  UNL1       -0.0013
      9 C          66.2434   95.5423   11.2119 C.ar    1  UNL1       -0.0011
     10 C          66.4327   96.8349   10.4747 C.ar    1  UNL1        0.0204
     11 C          67.0652   96.8369    9.1146 C.ar    1  UNL1        0.0989
     12 N          67.5085   95.5463    8.4917 N.ar    1  UNL1       -0.2426
     13 C          67.3193   94.2538    9.2289 C.ar    1  UNL1        0.0946
     14 S          62.9360   88.3148   12.7310 S.3     1  UNL1       -0.1298
     15 C          63.4017   86.9053   12.5152 C.3     1  UNL1        0.0780
     16 C          62.5526   85.9461   11.7348 C.3     1  UNL1        0.0899
     17 C          60.9804   86.8197    9.8599 C.2     1  UNL1        0.4014
     18 O          62.1403   86.8680    8.9099 O.2     1  UNL1       -0.2264
     19 N          61.1866   86.3588   11.2724 N.am    1  UNL1       -0.2711
     20 H          60.4253   86.3270   11.8959 H       1  UNL1        0.1527
     21 O          59.6145   87.2323    9.3974 O.3     1  UNL1       -0.4419
     22 C          58.9400   86.8983    7.4141 C.3     1  UNL1        0.0437
     23 C          59.4630   88.0829    8.1712 C.3     1  UNL1        0.1378
     24 C          59.9860   89.2675    8.9284 C.3     1  UNL1        0.0437
     25 C          59.3115   88.9335    6.9451 C.3     1  UNL1        0.0437
     26 C          63.0694   84.5744   11.4170 C.3     1  UNL1        0.0469
     27 C          62.7558   83.4250   12.3283 C.ar    1  UNL1       -0.0205
     28 C          62.4025   83.6806   13.7635 C.ar    1  UNL1       -0.0042
     29 C          62.0889   82.5312   14.6749 C.ar    1  UNL1       -0.0003
     30 C          62.1286   81.1262   14.1510 C.ar    1  UNL1       -0.0000
     31 C          62.4819   80.8706   12.7158 C.ar    1  UNL1       -0.0003
     32 C          62.7955   82.0200   11.8044 C.ar    1  UNL1       -0.0042
     33 C          64.5658   89.0331   14.6225 C.3     1  UNL1        0.0463
     34 C          63.9758   88.0468   15.5865 C.ar    1  UNL1       -0.0208
     35 C          63.1050   88.5255   16.7102 C.ar    1  UNL1       -0.0042
     36 C          62.5150   87.5393   17.6741 C.ar    1  UNL1       -0.0003
     37 C          62.7957   86.0745   17.5144 C.ar    1  UNL1       -0.0000
     38 C          63.6664   85.5958   16.3907 C.ar    1  UNL1       -0.0003
     39 C          64.2564   86.5820   15.4268 C.ar    1  UNL1       -0.0042
@<TRIPOS>BOND
     1    22    23    1
     2    23    24    1
     3    23    25    1
     4    23    21    1
     5    21    17    1
     6    17    18    2
     7    17    19   am
     8    19    16    1
     9    16    15    1
    10    15    14    1
    11    14     1    1
    12     1    33    1
    13    33    34    1
    14    34    35   ar
    15    35    36   ar
    16    36    37   ar
    17    37    38   ar
    18    38    39   ar
    19     1     2    1
    20     2     3    2
    21     2     4   am
    22     4     6    1
    23     6     7    1
    24     7     8    1
    25     8     9   ar
    26     9    10   ar
    27    10    11   ar
    28    11    12   ar
    29    12    13   ar
    30    16    26    1
    31    26    27    1
    32    27    28   ar
    33    28    29   ar
    34    29    30   ar
    35    30    31   ar
    36    31    32   ar
    37    39    34   ar
    38    13     8   ar
    39    32    27   ar
    40    19    20    1
    41     4     5    1
@<TRIPOS>MOLECULE
*****
 39 41 0 0 0
SMALL
GASTEIGER

@<TRIPOS>ATOM
      1 C          61.5155   89.0547   11.3150 C.3     1  UNL1        0.1281
      2 C          62.1338   87.7317   10.9724 C.2     1  UNL1        0.2325
      3 O          62.8609   87.5579    9.6720 O.2     1  UNL1       -0.2742
      4 N          62.0248   86.5824   11.9301 N.am    1  UNL1       -0.3033
      5 H          61.5475   86.6964   12.7836 H       1  UNL1        0.1495
      6 C          62.6430   85.2594   11.5874 C.3     1  UNL1        0.0941
      7 C          63.3746   84.4786   12.6387 C.3     1  UNL1        0.0492
      8 C          62.9913   83.0558   12.9189 C.ar    1  UNL1       -0.0013
      9 C          63.1552   82.0114   11.8547 C.ar    1  UNL1       -0.0011
     10 C          62.7718   80.5885   12.1349 C.ar    1  UNL1        0.0204
     11 C          62.2246   80.2100   13.4793 C.ar    1  UNL1        0.0989
     12 N          62.0607   81.2545   14.5434 N.ar    1  UNL1       -0.2426
     13 C          62.4440   82.6773   14.2632 C.ar    1  UNL1        0.0946
     14 S          62.1873   89.9634   12.3014 S.3     1  UNL1       -0.1298
     15 C          63.6805   90.1070   12.2928 C.3     1  UNL1        0.0780
     16 C          64.3778   90.7605   13.4490 C.3     1  UNL1        0.0899
     17 C          65.6721   92.4471   11.9556 C.2     1  UNL1        0.4014
     18 O          64.5655   92.4004   10.9439 O.2     1  UNL1       -0.2264
     19 N          65.5782   91.6272   13.2081 N.am    1  UNL1       -0.2711
     20 H          66.3044   91.6578   13.8721 H       1  UNL1        0.1527
     21 O          66.8725   93.3137   11.7147 O.3     1  UNL1       -0.4419
     22 C          66.6751   95.0577   10.5232 C.3     1  UNL1        0.0437
     23 C          67.2565   93.6908   10.3145 C.3     1  UNL1        0.1378
     24 C          67.8378   92.3239   10.1059 C.3     1  UNL1        0.0437
     25 C          67.6405   94.0679    8.9144 C.3     1  UNL1        0.0437
     26 C          63.8746   90.5475   14.8459 C.3     1  UNL1        0.0469
     27 C          63.7702   89.1583   15.4017 C.ar    1  UNL1       -0.0205
     28 C          63.0379   88.9184   16.6887 C.ar    1  UNL1       -0.0042
     29 C          62.9334   87.5291   17.2445 C.ar    1  UNL1       -0.0003
     30 C          63.5613   86.3797   16.5134 C.ar    1  UNL1       -0.0000
     31 C          64.2936   86.6195   15.2265 C.ar    1  UNL1       -0.0003
     32 C          64.3981   88.0088   14.6706 C.ar    1  UNL1       -0.0042
     33 C          60.2256   89.4690   10.6713 C.3     1  UNL1        0.0463
     34 C          59.8302   88.8918    9.3445 C.ar    1  UNL1       -0.0208
     35 C          59.3959   87.4593    9.2492 C.ar    1  UNL1       -0.0042
     36 C          59.0005   86.8821    7.9224 C.ar    1  UNL1       -0.0003
     37 C          59.0394   87.7375    6.6908 C.ar    1  UNL1       -0.0000
     38 C          59.4737   89.1700    6.7861 C.ar    1  UNL1       -0.0003
     39 C          59.8691   89.7472    8.1129 C.ar    1  UNL1       -0.0042
@<TRIPOS>BOND
     1    22    23    1
     2    23    24    1
     3    23    25    1
     4    23    21    1
     5    21    17    1
     6    17    18    2
     7    17    19   am
     8    19    16    1
     9    16    15    1
    10    15    14    1
    11    14     1    1
    12     1    33    1
    13    33    34    1
    14    34    35   ar
    15    35    36   ar
    16    36    37   ar
    17    37    38   ar
    18    38    39   ar
    19     1     2    1
    20     2     3    2
    21     2     4   am
    22     4     6    1
    23     6     7    1
    24     7     8    1
    25     8     9   ar
    26     9    10   ar
    27    10    11   ar
    28    11    12   ar
    29    12    13   ar
    30    16    26    1
    31    26    27    1
    32    27    28   ar
    33    28    29   ar
    34    29    30   ar
    35    30    31   ar
    36    31    32   ar
    37    39    34   ar
    38    13     8   ar
    39    32    27   ar
    40    19    20    1
    41     4     5    1
@<TRIPOS>MOLECULE
*****
 39 41 0 0 0
SMALL
GASTEIGER

@<TRIPOS>ATOM
      1 C          63.8029   88.6306   14.0298 C.3     1  UNL1        0.1281
      2 C          63.7189   89.4908   15.2558 C.2     1  UNL1        0.2325
      3 O          63.2237   88.9100   16.5471 O.2     1  UNL1       -0.2742
      4 N          64.1302   90.9318   15.1906 N.am    1  UNL1       -0.3033
      5 H          64.4553   91.3131   14.3431 H       1  UNL1        0.1495
      6 C          64.0463   91.7920   16.4165 C.3     1  UNL1        0.0941
      7 C          65.2054   92.6620   16.8031 C.3     1  UNL1        0.0492
      8 C          66.4501   92.6687   15.9661 C.ar    1  UNL1       -0.0013
      9 C          67.7680   92.2978   16.5789 C.ar    1  UNL1       -0.0011
     10 C          69.0128   92.3045   15.7419 C.ar    1  UNL1        0.0204
     11 C          68.9396   92.6821   14.2920 C.ar    1  UNL1        0.0989
     12 N          67.6216   93.0531   13.6792 N.ar    1  UNL1       -0.2426
     13 C          66.3770   93.0464   14.5163 C.ar    1  UNL1        0.0946
     14 S          63.8550   87.1375   14.1634 S.3     1  UNL1       -0.1298
     15 C          63.9684   86.2784   12.9390 C.3     1  UNL1        0.0780
     16 C          62.8544   85.3429   12.5734 C.3     1  UNL1        0.0899
     17 C          62.3824   83.5714   14.4144 C.2     1  UNL1        0.4014
     18 O          61.8481   84.6474   15.3127 O.2     1  UNL1       -0.2264
     19 N          62.8855   83.9191   13.0448 N.am    1  UNL1       -0.2711
     20 H          63.2362   83.2129   12.4552 H       1  UNL1        0.1527
     21 O          62.4135   82.1478   14.8858 O.3     1  UNL1       -0.4419
     22 C          60.8767   80.9522   14.0438 C.3     1  UNL1        0.0437
     23 C          62.3669   81.0268   13.8901 C.3     1  UNL1        0.1378
     24 C          63.8572   81.1015   13.7364 C.3     1  UNL1        0.0437
     25 C          62.3204   79.9059   12.8944 C.3     1  UNL1        0.0437
     26 C          61.7093   85.8310   11.7365 C.3     1  UNL1        0.0469
     27 C          61.7584   85.6917   10.2438 C.ar    1  UNL1       -0.0205
     28 C          62.9374   85.0334    9.5904 C.ar    1  UNL1       -0.0042
     29 C          62.9865   84.8941    8.0977 C.ar    1  UNL1       -0.0003
     30 C          61.8568   85.4130    7.2584 C.ar    1  UNL1       -0.0000
     31 C          60.6779   86.0713    7.9118 C.ar    1  UNL1       -0.0003
     32 C          60.6287   86.2106    9.4045 C.ar    1  UNL1       -0.0042
     33 C          63.8346   89.2635   12.6703 C.3     1  UNL1        0.0463
     34 C          62.5631   89.4362   11.8935 C.ar    1  UNL1       -0.0208
     35 C          62.5928   89.4235   10.3938 C.ar    1  UNL1       -0.0042
     36 C          61.3213   89.5961    9.6171 C.ar    1  UNL1       -0.0003
     37 C          60.0201   89.7815   10.3400 C.ar    1  UNL1       -0.0000
     38 C          59.9904   89.7942   11.8396 C.ar    1  UNL1       -0.0003
     39 C          61.2619   89.6216   12.6163 C.ar    1  UNL1       -0.0042
@<TRIPOS>BOND
     1    22    23    1
     2    23    24    1
     3    23    25    1
     4    23    21    1
     5    21    17    1
     6    17    18    2
     7    17    19   am
     8    19    16    1
     9    16    15    1
    10    15    14    1
    11    14     1    1
    12     1    33    1
    13    33    34    1
    14    34    35   ar
    15    35    36   ar
    16    36    37   ar
    17    37    38   ar
    18    38    39   ar
    19     1     2    1
    20     2     3    2
    21     2     4   am
    22     4     6    1
    23     6     7    1
    24     7     8    1
    25     8     9   ar
    26     9    10   ar
    27    10    11   ar
    28    11    12   ar
    29    12    13   ar
    30    16    26    1
    31    26    27    1
    32    27    28   ar
    33    28    29   ar
    34    29    30   ar
    35    30    31   ar
    36    31    32   ar
    37    39    34   ar
    38    13     8   ar
    39    32    27   ar
    40    19    20    1
    41     4     5    1
