@<TRIPOS>MOLECULE
*****
 27 30 0 0 0
SMALL
GASTEIGER

@<TRIPOS>ATOM
      1 C          63.1359   87.1572   16.3208 C.ar    1  UNL1        0.1386
      2 C          62.8217   88.5388   16.8131 C.ar    1  UNL1        0.0369
      3 C          63.4033   89.7334   16.1168 C.ar    1  UNL1        0.0047
      4 C          64.2991   89.5462   14.9283 C.ar    1  UNL1        0.0192
      5 C          64.6133   88.1645   14.4361 C.ar    1  UNL1        0.0047
      6 C          64.0316   86.9700   15.1323 C.ar    1  UNL1        0.0369
      7 C          64.8808   90.7407   14.2320 C.ar    1  UNL1        0.0968
      8 N          65.8904   91.6000   14.9338 N.ar    1  UNL1       -0.1671
      9 N          66.4721   92.7945   14.2376 N.ar    1  UNL1       -0.2149
     10 C          67.4817   93.6538   14.9394 C.3     1  UNL1        0.1571
     11 C          66.0443   93.1298   12.8396 C.ar    1  UNL1        0.2721
     12 O          66.6260   94.3243   12.1433 O.2     1  UNL1       -0.2659
     13 C          65.0347   92.2705   12.1378 C.ar    1  UNL1        0.0329
     14 C          64.4530   91.0760   12.8340 C.ar    1  UNL1       -0.0022
     15 C          63.4840   90.4192   11.8962 C.3     1  UNL1        0.0281
     16 C          63.4668   91.2078   10.6203 C.3     1  UNL1        0.0095
     17 C          64.4252   92.3520   10.7696 C.3     1  UNL1        0.0313
     18 O          62.5542   85.9626   17.0171 O.3     1  UNL1       -0.4754
     19 C          62.7840   84.5871   16.4649 C.3     1  UNL1        0.2068
     20 C          62.0685   84.1488   15.2215 C.3     1  UNL1        0.0646
     21 C          62.4021   82.8300   14.5896 C.3     1  UNL1        0.0759
     22 C          62.5405   80.1612   12.7166 C.3     1  UNL1        0.0173
     23 C          62.9262   81.5502   12.3021 C.3     1  UNL1        0.0576
     24 C          63.4432   81.9565   10.9538 C.3     1  UNL1        0.0174
     25 C          63.6990   83.4343   10.9815 C.3     1  UNL1        0.0187
     26 C          63.3401   83.9413   12.3468 C.3     1  UNL1        0.0721
     27 N          62.8625   82.7769   13.1630 N.3     1  UNL1       -0.2738
@<TRIPOS>BOND
     1    23    22    1
     2    23    24    1
     3    24    25    1
     4    25    26    1
     5    26    27    1
     6    27    21    1
     7    21    20    1
     8    20    19    1
     9    19    18    1
    10    18     1    1
    11     1     2   ar
    12     2     3   ar
    13     3     4   ar
    14     4     7    1
    15     7     8   ar
    16     8     9   ar
    17     9    10    1
    18     9    11   ar
    19    11    12    2
    20    11    13   ar
    21    13    14   ar
    22    14    15    1
    23    15    16    1
    24    16    17    1
    25     4     5   ar
    26     5     6   ar
    27    27    23    1
    28     6     1   ar
    29    14     7   ar
    30    17    13    1
@<TRIPOS>MOLECULE
*****
 27 30 0 0 0
SMALL
GASTEIGER

@<TRIPOS>ATOM
      1 C          64.5591   91.1193   13.6902 C.ar    1  UNL1        0.1386
      2 C          64.2725   89.6893   14.0408 C.ar    1  UNL1        0.0369
      3 C          63.4893   88.8277   13.0951 C.ar    1  UNL1        0.0047
      4 C          62.9926   89.3963   11.7990 C.ar    1  UNL1        0.0192
      5 C          63.2792   90.8263   11.4484 C.ar    1  UNL1        0.0047
      6 C          64.0625   91.6878   12.3941 C.ar    1  UNL1        0.0369
      7 C          62.2093   88.5348   10.8532 C.ar    1  UNL1        0.0968
      8 N          61.3646   89.1673    9.7872 N.ar    1  UNL1       -0.1671
      9 N          60.5813   88.3059    8.8415 N.ar    1  UNL1       -0.2149
     10 C          59.7365   88.9384    7.7754 C.3     1  UNL1        0.1571
     11 C          60.6427   86.8120    8.9617 C.ar    1  UNL1        0.2721
     12 O          59.8594   85.9506    8.0160 O.2     1  UNL1       -0.2659
     13 C          61.4874   86.1795   10.0277 C.ar    1  UNL1        0.0329
     14 C          62.2708   87.0409   10.9735 C.ar    1  UNL1       -0.0022
     15 C          63.0104   86.1395   11.9171 C.3     1  UNL1        0.0281
     16 C          62.6842   84.7210   11.5545 C.3     1  UNL1        0.0095
     17 C          61.7430   84.7457   10.3868 C.3     1  UNL1        0.0313
     18 O          65.3424   91.9808   14.6359 O.3     1  UNL1       -0.4754
     19 C          66.7654   91.6359   14.9612 C.3     1  UNL1        0.2068
     20 C          67.8829   92.2141   14.1445 C.3     1  UNL1        0.0646
     21 C          67.9246   91.9858   12.6625 C.3     1  UNL1        0.0759
     22 C          68.2795   92.0676    9.4196 C.3     1  UNL1        0.0173
     23 C          67.4639   93.0210   10.2416 C.3     1  UNL1        0.0576
     24 C          66.6681   94.1795    9.7172 C.3     1  UNL1        0.0174
     25 C          66.0132   94.8578   10.8839 C.3     1  UNL1        0.0187
     26 C          66.4042   94.1186   12.1292 C.3     1  UNL1        0.0721
     27 N          67.3007   92.9834   11.7322 N.3     1  UNL1       -0.2738
@<TRIPOS>BOND
     1    23    22    1
     2    23    24    1
     3    24    25    1
     4    25    26    1
     5    26    27    1
     6    27    21    1
     7    21    20    1
     8    20    19    1
     9    19    18    1
    10    18     1    1
    11     1     2   ar
    12     2     3   ar
    13     3     4   ar
    14     4     7    1
    15     7     8   ar
    16     8     9   ar
    17     9    10    1
    18     9    11   ar
    19    11    12    2
    20    11    13   ar
    21    13    14   ar
    22    14    15    1
    23    15    16    1
    24    16    17    1
    25     4     5   ar
    26     5     6   ar
    27    27    23    1
    28     6     1   ar
    29    14     7   ar
    30    17    13    1
@<TRIPOS>MOLECULE
*****
 27 30 0 0 0
SMALL
GASTEIGER

@<TRIPOS>ATOM
      1 C          63.4521   87.1959   16.4812 C.ar    1  UNL1        0.1386
      2 C          64.1853   86.8945   15.2078 C.ar    1  UNL1        0.0369
      3 C          64.5136   88.0022   14.2511 C.ar    1  UNL1        0.0047
      4 C          64.1085   89.4113   14.5678 C.ar    1  UNL1        0.0192
      5 C          63.3753   89.7127   15.8412 C.ar    1  UNL1        0.0047
      6 C          63.0470   88.6050   16.7979 C.ar    1  UNL1        0.0369
      7 C          64.4367   90.5190   13.6111 C.ar    1  UNL1        0.0968
      8 N          63.7904   90.5575   12.2580 N.ar    1  UNL1       -0.1671
      9 N          64.1185   91.6652   11.3013 N.ar    1  UNL1       -0.2149
     10 C          63.4722   91.7036    9.9482 C.3     1  UNL1        0.1571
     11 C          65.0929   92.7345   11.6977 C.ar    1  UNL1        0.2721
     12 O          65.4210   93.8422   10.7409 O.2     1  UNL1       -0.2659
     13 C          65.7392   92.6960   13.0507 C.ar    1  UNL1        0.0329
     14 C          65.4111   91.5883   14.0075 C.ar    1  UNL1       -0.0022
     15 C          66.1996   91.8120   15.2637 C.3     1  UNL1        0.0281
     16 C          67.0150   93.0580   15.0834 C.3     1  UNL1        0.0095
     17 C          66.7305   93.6044   13.7157 C.3     1  UNL1        0.0313
     18 O          63.1239   86.0882   17.4379 O.3     1  UNL1       -0.4754
     19 C          62.1925   84.9888   17.0214 C.3     1  UNL1        0.2068
     20 C          62.2327   84.4635   15.6170 C.3     1  UNL1        0.0646
     21 C          63.2780   83.4636   15.2199 C.3     1  UNL1        0.0759
     22 C          63.1799   84.4751   12.1188 C.3     1  UNL1        0.0173
     23 C          63.0208   83.0600   12.5900 C.3     1  UNL1        0.0576
     24 C          62.7886   81.8613   11.7185 C.3     1  UNL1        0.0174
     25 C          62.6902   80.6556   12.6055 C.3     1  UNL1        0.0187
     26 C          62.8615   81.1090   14.0250 C.3     1  UNL1        0.0721
     27 N          63.0658   82.5950   14.0154 N.3     1  UNL1       -0.2738
@<TRIPOS>BOND
     1    23    22    1
     2    23    24    1
     3    24    25    1
     4    25    26    1
     5    26    27    1
     6    27    21    1
     7    21    20    1
     8    20    19    1
     9    19    18    1
    10    18     1    1
    11     1     2   ar
    12     2     3   ar
    13     3     4   ar
    14     4     7    1
    15     7     8   ar
    16     8     9   ar
    17     9    10    1
    18     9    11   ar
    19    11    12    2
    20    11    13   ar
    21    13    14   ar
    22    14    15    1
    23    15    16    1
    24    16    17    1
    25     4     5   ar
    26     5     6   ar
    27    27    23    1
    28     6     1   ar
    29    14     7   ar
    30    17    13    1
@<TRIPOS>MOLECULE
*****
 27 30 0 0 0
SMALL
GASTEIGER

@<TRIPOS>ATOM
      1 C          64.6091   91.1736   14.0661 C.ar    1  UNL1        0.1386
      2 C          63.7674   90.9508   12.8448 C.ar    1  UNL1        0.0369
      3 C          63.3597   89.5599   12.4584 C.ar    1  UNL1        0.0047
      4 C          63.7938   88.3919   13.2934 C.ar    1  UNL1        0.0192
      5 C          64.6356   88.6147   14.5148 C.ar    1  UNL1        0.0047
      6 C          65.0433   90.0056   14.9012 C.ar    1  UNL1        0.0369
      7 C          63.3862   87.0010   12.9071 C.ar    1  UNL1        0.0968
      8 N          63.7043   85.8476   13.8119 N.ar    1  UNL1       -0.1671
      9 N          63.2967   84.4568   13.4256 N.ar    1  UNL1       -0.2149
     10 C          63.6148   83.3034   14.3304 C.3     1  UNL1        0.1571
     11 C          62.5710   84.2191   12.1346 C.ar    1  UNL1        0.2721
     12 O          62.1634   82.8282   11.7483 O.2     1  UNL1       -0.2659
     13 C          62.2528   85.3724   11.2298 C.ar    1  UNL1        0.0329
     14 C          62.6604   86.7634   11.6160 C.ar    1  UNL1       -0.0022
     15 C          62.2132   87.6960   10.5297 C.3     1  UNL1        0.0281
     16 C          61.5292   86.8815    9.4720 C.3     1  UNL1        0.0095
     17 C          61.5537   85.4454    9.9047 C.3     1  UNL1        0.0313
     18 O          65.0168   92.5645   14.4525 O.3     1  UNL1       -0.4754
     19 C          66.3510   93.1008   14.0258 C.3     1  UNL1        0.2068
     20 C          67.0476   92.5165   12.8328 C.3     1  UNL1        0.0646
     21 C          66.4320   92.6388   11.4705 C.3     1  UNL1        0.0759
     22 C          68.5040   92.4092    8.9598 C.3     1  UNL1        0.0173
     23 C          67.7940   93.6528    9.4060 C.3     1  UNL1        0.0576
     24 C          67.9117   95.0093    8.7766 C.3     1  UNL1        0.0174
     25 C          67.0320   95.9532    9.5417 C.3     1  UNL1        0.0187
     26 C          66.3706   95.1801   10.6439 C.3     1  UNL1        0.0721
     27 N          66.8416   93.7584   10.5601 N.3     1  UNL1       -0.2738
@<TRIPOS>BOND
     1    23    22    1
     2    23    24    1
     3    24    25    1
     4    25    26    1
     5    26    27    1
     6    27    21    1
     7    21    20    1
     8    20    19    1
     9    19    18    1
    10    18     1    1
    11     1     2   ar
    12     2     3   ar
    13     3     4   ar
    14     4     7    1
    15     7     8   ar
    16     8     9   ar
    17     9    10    1
    18     9    11   ar
    19    11    12    2
    20    11    13   ar
    21    13    14   ar
    22    14    15    1
    23    15    16    1
    24    16    17    1
    25     4     5   ar
    26     5     6   ar
    27    27    23    1
    28     6     1   ar
    29    14     7   ar
    30    17    13    1
@<TRIPOS>MOLECULE
*****
 27 30 0 0 0
SMALL
GASTEIGER

@<TRIPOS>ATOM
      1 C          62.7189   89.6699   11.0317 C.ar    1  UNL1        0.1386
      2 C          63.3604   89.3736   12.3548 C.ar    1  UNL1        0.0369
      3 C          63.4253   87.9619   12.8575 C.ar    1  UNL1        0.0047
      4 C          62.8486   86.8464   12.0370 C.ar    1  UNL1        0.0192
      5 C          62.2071   87.1427   10.7139 C.ar    1  UNL1        0.0047
      6 C          62.1422   88.5545   10.2112 C.ar    1  UNL1        0.0369
      7 C          62.9134   85.4346   12.5396 C.ar    1  UNL1        0.0968
      8 N          62.6299   85.1384   13.9825 N.ar    1  UNL1       -0.1671
      9 N          62.6947   83.7267   14.4851 N.ar    1  UNL1       -0.2149
     10 C          62.4111   83.4305   15.9281 C.3     1  UNL1        0.1571
     11 C          63.0431   82.6110   13.5450 C.ar    1  UNL1        0.2721
     12 O          63.1079   81.1993   14.0476 O.2     1  UNL1       -0.2659
     13 C          63.3266   82.9072   12.1021 C.ar    1  UNL1        0.0329
     14 C          63.2618   84.3190   11.5994 C.ar    1  UNL1       -0.0022
     15 C          63.5888   84.3053   10.1355 C.3     1  UNL1        0.0281
     16 C          63.8557   82.8850    9.7335 C.3     1  UNL1        0.0095
     17 C          63.6937   82.0210   10.9489 C.3     1  UNL1        0.0313
     18 O          62.6540   91.0817   10.5290 O.3     1  UNL1       -0.4754
     19 C          63.9108   91.8899   10.3986 C.3     1  UNL1        0.2068
     20 C          64.8923   91.9387   11.5319 C.3     1  UNL1        0.0646
     21 C          65.6484   93.2027   11.8154 C.3     1  UNL1        0.0759
     22 C          68.0469   92.1577    9.8649 C.3     1  UNL1        0.0173
     23 C          67.3704   93.4945    9.7920 C.3     1  UNL1        0.0576
     24 C          67.6777   94.5858    8.8097 C.3     1  UNL1        0.0174
     25 C          66.7651   95.7405    9.0992 C.3     1  UNL1        0.0187
     26 C          65.8938   95.3630   10.2604 C.3     1  UNL1        0.0721
     27 N          66.2680   93.9749   10.6886 N.3     1  UNL1       -0.2738
@<TRIPOS>BOND
     1    23    22    1
     2    23    24    1
     3    24    25    1
     4    25    26    1
     5    26    27    1
     6    27    21    1
     7    21    20    1
     8    20    19    1
     9    19    18    1
    10    18     1    1
    11     1     2   ar
    12     2     3   ar
    13     3     4   ar
    14     4     7    1
    15     7     8   ar
    16     8     9   ar
    17     9    10    1
    18     9    11   ar
    19    11    12    2
    20    11    13   ar
    21    13    14   ar
    22    14    15    1
    23    15    16    1
    24    16    17    1
    25     4     5   ar
    26     5     6   ar
    27    27    23    1
    28     6     1   ar
    29    14     7   ar
    30    17    13    1
@<TRIPOS>MOLECULE
*****
 27 30 0 0 0
SMALL
GASTEIGER

@<TRIPOS>ATOM
      1 C          63.7131   90.7785   12.9696 C.ar    1  UNL1        0.1386
      2 C          63.3345   91.2585   11.5998 C.ar    1  UNL1        0.0369
      3 C          62.8179   90.2867   10.5807 C.ar    1  UNL1        0.0047
      4 C          62.6799   88.8349   10.9314 C.ar    1  UNL1        0.0192
      5 C          63.0584   88.3548   12.3011 C.ar    1  UNL1        0.0047
      6 C          63.5750   89.3266   13.3203 C.ar    1  UNL1        0.0369
      7 C          62.1633   87.8629    9.9122 C.ar    1  UNL1        0.0968
      8 N          62.8197   86.5236    9.7528 N.ar    1  UNL1       -0.1671
      9 N          62.3032   85.5517    8.7338 N.ar    1  UNL1       -0.2149
     10 C          62.9597   84.2124    8.5744 C.3     1  UNL1        0.1571
     11 C          61.1302   85.9190    7.8741 C.ar    1  UNL1        0.2721
     12 O          60.6137   84.9471    6.8551 O.2     1  UNL1       -0.2659
     13 C          60.4737   87.2583    8.0335 C.ar    1  UNL1        0.0329
     14 C          60.9902   88.2302    9.0525 C.ar    1  UNL1       -0.0022
     15 C          60.1453   89.4677    8.9829 C.3     1  UNL1        0.0281
     16 C          59.1066   89.2605    7.9208 C.3     1  UNL1        0.0095
     17 C          59.3095   87.8950    7.3340 C.3     1  UNL1        0.0313
     18 O          64.2297   91.7503   13.9887 O.3     1  UNL1       -0.4754
     19 C          65.6865   92.1062   14.0149 C.3     1  UNL1        0.2068
     20 C          66.2120   93.1827   13.1121 C.3     1  UNL1        0.0646
     21 C          66.8709   92.8181   11.8148 C.3     1  UNL1        0.0759
     22 C          68.4955   92.4195    9.0128 C.3     1  UNL1        0.0173
     23 C          67.8225   93.6796    9.4701 C.3     1  UNL1        0.0576
     24 C          67.7781   94.9777    8.7198 C.3     1  UNL1        0.0174
     25 C          67.0039   95.9632    9.5441 C.3     1  UNL1        0.0187
     26 C          66.5698   95.2742   10.8038 C.3     1  UNL1        0.0721
     27 N          67.0758   93.8628   10.7581 N.3     1  UNL1       -0.2738
@<TRIPOS>BOND
     1    23    22    1
     2    23    24    1
     3    24    25    1
     4    25    26    1
     5    26    27    1
     6    27    21    1
     7    21    20    1
     8    20    19    1
     9    19    18    1
    10    18     1    1
    11     1     2   ar
    12     2     3   ar
    13     3     4   ar
    14     4     7    1
    15     7     8   ar
    16     8     9   ar
    17     9    10    1
    18     9    11   ar
    19    11    12    2
    20    11    13   ar
    21    13    14   ar
    22    14    15    1
    23    15    16    1
    24    16    17    1
    25     4     5   ar
    26     5     6   ar
    27    27    23    1
    28     6     1   ar
    29    14     7   ar
    30    17    13    1
@<TRIPOS>MOLECULE
*****
 27 30 0 0 0
SMALL
GASTEIGER

@<TRIPOS>ATOM
      1 C          61.1411   89.1823   10.5844 C.ar    1  UNL1        0.1386
      2 C          62.0143   90.0861    9.7654 C.ar    1  UNL1        0.0369
      3 C          63.0742   90.9115   10.4327 C.ar    1  UNL1        0.0047
      4 C          63.2608   90.8332   11.9190 C.ar    1  UNL1        0.0192
      5 C          62.3876   89.9294   12.7379 C.ar    1  UNL1        0.0047
      6 C          61.3278   89.1039   12.0706 C.ar    1  UNL1        0.0369
      7 C          64.3207   91.6586   12.5864 C.ar    1  UNL1        0.0968
      8 N          64.5100   91.5772   14.0722 N.ar    1  UNL1       -0.1671
      9 N          65.5698   92.4025   14.7396 N.ar    1  UNL1       -0.2149
     10 C          65.7591   92.3211   16.2255 C.3     1  UNL1        0.1571
     11 C          66.4404   93.3094   13.9213 C.ar    1  UNL1        0.2721
     12 O          67.5002   94.1347   14.5888 O.2     1  UNL1       -0.2659
     13 C          66.2511   93.3908   12.4355 C.ar    1  UNL1        0.0329
     14 C          65.1913   92.5655   11.7681 C.ar    1  UNL1       -0.0022
     15 C          65.2379   92.8531   10.2966 C.3     1  UNL1        0.0281
     16 C          66.3265   93.8562   10.0547 C.3     1  UNL1        0.0095
     17 C          66.9528   94.1886   11.3766 C.3     1  UNL1        0.0313
     18 O          60.0812   88.3569    9.9171 O.3     1  UNL1       -0.4754
     19 C          60.4321   87.0268    9.3190 C.3     1  UNL1        0.2068
     20 C          61.7296   86.3634    9.6746 C.3     1  UNL1        0.0646
     21 C          61.8420   85.5656   10.9398 C.3     1  UNL1        0.0759
     22 C          62.6950   83.9776   13.6602 C.3     1  UNL1        0.0173
     23 C          63.2190   83.7079   12.2808 C.3     1  UNL1        0.0576
     24 C          64.2272   82.6610   11.9096 C.3     1  UNL1        0.0174
     25 C          64.4581   82.7440   10.4298 C.3     1  UNL1        0.0187
     26 C          63.5928   83.8421    9.8864 C.3     1  UNL1        0.0721
     27 N          62.8270   84.4379   11.0304 N.3     1  UNL1       -0.2738
@<TRIPOS>BOND
     1    23    22    1
     2    23    24    1
     3    24    25    1
     4    25    26    1
     5    26    27    1
     6    27    21    1
     7    21    20    1
     8    20    19    1
     9    19    18    1
    10    18     1    1
    11     1     2   ar
    12     2     3   ar
    13     3     4   ar
    14     4     7    1
    15     7     8   ar
    16     8     9   ar
    17     9    10    1
    18     9    11   ar
    19    11    12    2
    20    11    13   ar
    21    13    14   ar
    22    14    15    1
    23    15    16    1
    24    16    17    1
    25     4     5   ar
    26     5     6   ar
    27    27    23    1
    28     6     1   ar
    29    14     7   ar
    30    17    13    1
@<TRIPOS>MOLECULE
*****
 27 30 0 0 0
SMALL
GASTEIGER

@<TRIPOS>ATOM
      1 C          62.3860   89.2043   10.5064 C.ar    1  UNL1        0.1386
      2 C          61.9051   87.9905    9.7680 C.ar    1  UNL1        0.0369
      3 C          62.0449   86.6315   10.3874 C.ar    1  UNL1        0.0047
      4 C          62.6657   86.4865   11.7452 C.ar    1  UNL1        0.0192
      5 C          63.1466   87.7004   12.4836 C.ar    1  UNL1        0.0047
      6 C          63.0068   89.0594   11.8641 C.ar    1  UNL1        0.0369
      7 C          62.8056   85.1275   12.3647 C.ar    1  UNL1        0.0968
      8 N          62.4754   84.9264   13.8141 N.ar    1  UNL1       -0.1671
      9 N          62.6153   83.5676   14.4336 N.ar    1  UNL1       -0.2149
     10 C          62.2851   83.3664   15.8830 C.3     1  UNL1        0.1571
     11 C          63.0854   82.4098   13.6038 C.ar    1  UNL1        0.2721
     12 O          63.2252   81.0509   14.2234 O.2     1  UNL1       -0.2659
     13 C          63.4156   82.6108   12.1545 C.ar    1  UNL1        0.0329
     14 C          63.2757   83.9697   11.5350 C.ar    1  UNL1       -0.0022
     15 C          63.6719   83.8644   10.0921 C.3     1  UNL1        0.0281
     16 C          64.0566   82.4403    9.8199 C.3     1  UNL1        0.0095
     17 C          63.8982   81.6656   11.0946 C.3     1  UNL1        0.0313
     18 O          62.2462   90.5633    9.8870 O.3     1  UNL1       -0.4754
     19 C          63.3460   91.5722   10.0358 C.3     1  UNL1        0.2068
     20 C          63.8673   91.9179   11.3991 C.3     1  UNL1        0.0646
     21 C          65.3270   92.2034   11.5938 C.3     1  UNL1        0.0759
     22 C          65.0351   90.3928   14.2931 C.3     1  UNL1        0.0173
     23 C          65.7123   91.7277   14.1958 C.3     1  UNL1        0.0576
     24 C          66.3742   92.4648   15.3222 C.3     1  UNL1        0.0174
     25 C          66.9175   93.7525   14.7775 C.3     1  UNL1        0.0187
     26 C          66.5913   93.8113   13.3146 C.3     1  UNL1        0.0721
     27 N          65.8465   92.5599   12.9551 N.3     1  UNL1       -0.2738
@<TRIPOS>BOND
     1    23    22    1
     2    23    24    1
     3    24    25    1
     4    25    26    1
     5    26    27    1
     6    27    21    1
     7    21    20    1
     8    20    19    1
     9    19    18    1
    10    18     1    1
    11     1     2   ar
    12     2     3   ar
    13     3     4   ar
    14     4     7    1
    15     7     8   ar
    16     8     9   ar
    17     9    10    1
    18     9    11   ar
    19    11    12    2
    20    11    13   ar
    21    13    14   ar
    22    14    15    1
    23    15    16    1
    24    16    17    1
    25     4     5   ar
    26     5     6   ar
    27    27    23    1
    28     6     1   ar
    29    14     7   ar
    30    17    13    1
@<TRIPOS>MOLECULE
*****
 27 30 0 0 0
SMALL
GASTEIGER

@<TRIPOS>ATOM
      1 C          62.0216   88.2637   11.2875 C.ar    1  UNL1        0.1386
      2 C          62.0351   89.2695   10.1748 C.ar    1  UNL1        0.0369
      3 C          62.8810   90.5030   10.2890 C.ar    1  UNL1        0.0047
      4 C          63.7134   90.7305   11.5159 C.ar    1  UNL1        0.0192
      5 C          63.6999   89.7246   12.6285 C.ar    1  UNL1        0.0047
      6 C          62.8540   88.4912   12.5143 C.ar    1  UNL1        0.0369
      7 C          64.5594   91.9639   11.6302 C.ar    1  UNL1        0.0968
      8 N          64.7066   92.8840   10.4546 N.ar    1  UNL1       -0.1671
      9 N          65.5525   94.1174   10.5688 N.ar    1  UNL1       -0.2149
     10 C          65.6996   95.0375    9.3933 C.3     1  UNL1        0.1571
     11 C          66.2513   94.4308   11.8586 C.ar    1  UNL1        0.2721
     12 O          67.0972   95.6642   11.9728 O.2     1  UNL1       -0.2659
     13 C          66.1042   93.5107   13.0341 C.ar    1  UNL1        0.0329
     14 C          65.2582   92.2773   12.9199 C.ar    1  UNL1       -0.0022
     15 C          65.2997   91.5630   14.2382 C.3     1  UNL1        0.0281
     16 C          66.1713   92.3550   15.1672 C.3     1  UNL1        0.0095
     17 C          66.6685   93.5587   14.4230 C.3     1  UNL1        0.0313
     18 O          61.1757   87.0302   11.1733 O.3     1  UNL1       -0.4754
     19 C          61.5726   85.9332   10.2305 C.3     1  UNL1        0.2068
     20 C          62.6093   84.9299   10.6411 C.3     1  UNL1        0.0646
     21 C          62.8659   84.6691   12.0958 C.3     1  UNL1        0.0759
     22 C          62.4142   83.9098   15.2373 C.3     1  UNL1        0.0173
     23 C          62.4824   82.9384   14.0965 C.3     1  UNL1        0.0576
     24 C          62.3549   81.4473   14.1993 C.3     1  UNL1        0.0174
     25 C          62.4838   80.8748   12.8188 C.3     1  UNL1        0.0187
     26 C          62.6909   82.0120   11.8628 C.3     1  UNL1        0.0721
     27 N          62.6900   83.2873   12.6525 N.3     1  UNL1       -0.2738
@<TRIPOS>BOND
     1    23    22    1
     2    23    24    1
     3    24    25    1
     4    25    26    1
     5    26    27    1
     6    27    21    1
     7    21    20    1
     8    20    19    1
     9    19    18    1
    10    18     1    1
    11     1     2   ar
    12     2     3   ar
    13     3     4   ar
    14     4     7    1
    15     7     8   ar
    16     8     9   ar
    17     9    10    1
    18     9    11   ar
    19    11    12    2
    20    11    13   ar
    21    13    14   ar
    22    14    15    1
    23    15    16    1
    24    16    17    1
    25     4     5   ar
    26     5     6   ar
    27    27    23    1
    28     6     1   ar
    29    14     7   ar
    30    17    13    1
