@<TRIPOS>MOLECULE
*****
 33 37 0 0 0
SMALL
GASTEIGER

@<TRIPOS>ATOM
      1 C          59.1684   87.1113    8.1891 C.3     1  UNL1        0.0339
      2 C          59.9678   87.7471    9.2876 C.3     1  UNL1        0.1351
      3 C          60.9676   86.9337   10.0549 C.3     1  UNL1        0.1231
      4 N          61.7670   87.5695   11.1534 N.am    1  UNL1       -0.2724
      5 C          62.7668   86.7561   11.9208 C.2     1  UNL1        0.2506
      6 O          63.5662   87.3918   13.0193 O.2     1  UNL1       -0.2699
      7 C          61.5666   89.0187   11.4846 C.3     1  UNL1        0.1096
      8 C          60.5668   89.8320   10.7173 C.3     1  UNL1        0.1621
      9 O          59.7674   89.1963    9.6188 O.3     1  UNL1       -0.3527
     10 C          62.9672   85.3069   11.5895 C.ar    1  UNL1        0.0730
     11 C          63.0084   84.8637   10.1571 C.ar    1  UNL1        0.0070
     12 C          63.2088   83.4144    9.8259 C.ar    1  UNL1        0.0116
     13 C          63.3680   82.4085   10.9272 C.ar    1  UNL1        0.0592
     14 CL         63.5683   80.9594   10.5960 Cl      1  UNL1       -0.0822
     15 C          63.3267   82.8517   12.3596 C.ar    1  UNL1        0.0324
     16 C          63.1263   84.3009   12.6908 C.ar    1  UNL1        0.1081
     17 N          63.0851   84.7441   14.1232 N.ar    1  UNL1       -0.1476
     18 N          61.8679   84.7843   14.9990 N.ar    1  UNL1       -0.1447
     19 C          62.2844   85.2900   16.3484 C.ar    1  UNL1        0.1446
     20 C          63.7589   85.5623   16.3066 C.ar    1  UNL1        0.1446
     21 N          64.2537   85.2249   14.9314 N.ar    1  UNL1       -0.1447
     22 C          62.3660   89.6545   12.5832 C.3     1  UNL1        0.0488
     23 C          63.4533   90.6325   12.2499 C.ar    1  UNL1       -0.0189
     24 C          63.5206   91.2416   10.8807 C.ar    1  UNL1       -0.0041
     25 C          64.6079   92.2196   10.5475 C.ar    1  UNL1        0.0013
     26 C          65.6280   92.5887   11.5835 C.ar    1  UNL1        0.0209
     27 C          65.5608   91.9797   12.9526 C.ar    1  UNL1        0.1026
     28 C          64.4734   91.0016   13.2859 C.ar    1  UNL1        0.0167
     29 N          66.5809   92.3487   13.9885 N.ar    1  UNL1       -0.1478
     30 N          66.2912   92.8143   15.3847 N.ar    1  UNL1       -0.1447
     31 C          67.6011   93.0703   16.0692 C.ar    1  UNL1        0.1446
     32 C          68.7004   92.7630   15.0961 C.ar    1  UNL1        0.1446
     33 N          68.0699   92.3171   13.8102 N.ar    1  UNL1       -0.1447
@<TRIPOS>BOND
     1     2     1    1
     2     2     3    1
     3     3     4    1
     4     4     5   am
     5     5     6    2
     6     5    10    1
     7    10    11   ar
     8    11    12   ar
     9    12    13   ar
    10    13    14    1
    11    13    15   ar
    12    15    16   ar
    13    16    17    1
    14    17    18   ar
    15    18    19   ar
    16    19    20   ar
    17    20    21   ar
    18     4     7    1
    19     7    22    1
    20    22    23    1
    21    23    24   ar
    22    24    25   ar
    23    25    26   ar
    24    26    27   ar
    25    27    29    1
    26    29    30   ar
    27    30    31   ar
    28    31    32   ar
    29    32    33   ar
    30    27    28   ar
    31     7     8    1
    32     8     9    1
    33     9     2    1
    34    16    10   ar
    35    21    17   ar
    36    28    23   ar
    37    33    29   ar
@<TRIPOS>MOLECULE
*****
 33 37 0 0 0
SMALL
GASTEIGER

@<TRIPOS>ATOM
      1 C          60.9474   85.6350    7.8825 C.3     1  UNL1        0.0339
      2 C          61.4279   86.4855    9.0208 C.3     1  UNL1        0.1351
      3 C          61.9126   85.8414   10.2857 C.3     1  UNL1        0.1231
      4 N          62.3931   86.6919   11.4240 N.am    1  UNL1       -0.2724
      5 C          62.8779   86.0477   12.6890 C.2     1  UNL1        0.2506
      6 O          63.3584   86.8982   13.8273 O.2     1  UNL1       -0.2699
      7 C          62.3889   88.1865   11.2974 C.3     1  UNL1        0.1096
      8 C          61.9041   88.8306   10.0325 C.3     1  UNL1        0.1621
      9 O          61.4236   87.9801    8.8942 O.3     1  UNL1       -0.3527
     10 C          62.8822   84.5531   12.8156 C.ar    1  UNL1        0.0730
     11 C          62.9249   83.6962   11.5852 C.ar    1  UNL1        0.0070
     12 C          62.9292   82.2016   11.7118 C.ar    1  UNL1        0.0116
     13 C          62.8907   81.5638   13.0689 C.ar    1  UNL1        0.0592
     14 CL         62.8949   80.0692   13.1955 Cl      1  UNL1       -0.0822
     15 C          62.8479   82.4206   14.2994 C.ar    1  UNL1        0.0324
     16 C          62.8437   83.9152   14.1728 C.ar    1  UNL1        0.1081
     17 N          62.8009   84.7720   15.4032 N.ar    1  UNL1       -0.1476
     18 N          63.9873   85.3471   16.1188 N.ar    1  UNL1       -0.1447
     19 C          63.4839   86.1347   17.2920 C.ar    1  UNL1        0.1446
     20 C          61.9865   86.0464   17.3015 C.ar    1  UNL1        0.1446
     21 N          61.5644   85.2042   16.1342 N.ar    1  UNL1       -0.1447
     22 C          62.8694   89.0370   12.4358 C.3     1  UNL1        0.0488
     23 C          63.7234   90.2399   12.1648 C.ar    1  UNL1       -0.0189
     24 C          63.5274   91.0305   10.9051 C.ar    1  UNL1       -0.0041
     25 C          64.3815   92.2335   10.6341 C.ar    1  UNL1        0.0013
     26 C          65.4316   92.6458   11.6227 C.ar    1  UNL1        0.0209
     27 C          65.6276   91.8553   12.8823 C.ar    1  UNL1        0.1026
     28 C          64.7735   90.6523   13.1533 C.ar    1  UNL1        0.0167
     29 N          66.6776   92.2677   13.8709 N.ar    1  UNL1       -0.1478
     30 N          68.1587   92.0961   13.7070 N.ar    1  UNL1       -0.1447
     31 C          68.8275   92.6465   14.9318 C.ar    1  UNL1        0.1446
     32 C          67.7596   93.1582   15.8526 C.ar    1  UNL1        0.1446
     33 N          66.4310   92.9241   15.1969 N.ar    1  UNL1       -0.1447
@<TRIPOS>BOND
     1     2     1    1
     2     2     3    1
     3     3     4    1
     4     4     5   am
     5     5     6    2
     6     5    10    1
     7    10    11   ar
     8    11    12   ar
     9    12    13   ar
    10    13    14    1
    11    13    15   ar
    12    15    16   ar
    13    16    17    1
    14    17    18   ar
    15    18    19   ar
    16    19    20   ar
    17    20    21   ar
    18     4     7    1
    19     7    22    1
    20    22    23    1
    21    23    24   ar
    22    24    25   ar
    23    25    26   ar
    24    26    27   ar
    25    27    29    1
    26    29    30   ar
    27    30    31   ar
    28    31    32   ar
    29    32    33   ar
    30    27    28   ar
    31     7     8    1
    32     8     9    1
    33     9     2    1
    34    16    10   ar
    35    21    17   ar
    36    28    23   ar
    37    33    29   ar
@<TRIPOS>MOLECULE
*****
 33 37 0 0 0
SMALL
GASTEIGER

@<TRIPOS>ATOM
      1 C          62.8701   86.5883   18.3538 C.3     1  UNL1        0.0339
      2 C          63.0714   87.5803   17.2468 C.3     1  UNL1        0.1351
      3 C          63.2034   87.1062   15.8298 C.3     1  UNL1        0.1231
      4 N          63.4046   88.0981   14.7228 N.am    1  UNL1       -0.2724
      5 C          63.5366   87.6240   13.3057 C.2     1  UNL1        0.2506
      6 O          63.7378   88.6160   12.1987 O.2     1  UNL1       -0.2699
      7 C          63.4739   89.5641   15.0327 C.3     1  UNL1        0.1096
      8 C          63.3420   90.0381   16.4496 C.3     1  UNL1        0.1621
      9 O          63.1407   89.0462   17.5567 O.3     1  UNL1       -0.3527
     10 C          63.4673   86.1581   12.9958 C.ar    1  UNL1        0.0730
     11 C          64.2690   85.1818   13.8045 C.ar    1  UNL1        0.0070
     12 C          64.1997   83.7157   13.4946 C.ar    1  UNL1        0.0116
     13 C          63.3286   83.2261   12.3760 C.ar    1  UNL1        0.0592
     14 CL         63.2593   81.7601   12.0661 Cl      1  UNL1       -0.0822
     15 C          62.5268   84.2023   11.5673 C.ar    1  UNL1        0.0324
     16 C          62.5961   85.6683   11.8772 C.ar    1  UNL1        0.1081
     17 N          61.7943   86.6446   11.0684 N.ar    1  UNL1       -0.1476
     18 N          60.5813   87.3918   11.5378 N.ar    1  UNL1       -0.1447
     19 C          60.1021   88.2541   10.4078 C.ar    1  UNL1        0.1446
     20 C          61.0189   88.0398    9.2401 C.ar    1  UNL1        0.1446
     21 N          62.0648   87.0451    9.6484 N.ar    1  UNL1       -0.1447
     22 C          63.6752   90.5560   13.9256 C.3     1  UNL1        0.0488
     23 C          64.9887   91.2663   13.7846 C.ar    1  UNL1       -0.0189
     24 C          66.0933   91.0021   14.7646 C.ar    1  UNL1       -0.0041
     25 C          67.4069   91.7123   14.6236 C.ar    1  UNL1        0.0013
     26 C          67.6160   92.6869   13.5027 C.ar    1  UNL1        0.0209
     27 C          66.5116   92.9512   12.5227 C.ar    1  UNL1        0.1026
     28 C          65.1979   92.2409   12.6637 C.ar    1  UNL1        0.0167
     29 N          66.7207   93.9258   11.4018 N.ar    1  UNL1       -0.1478
     30 N          67.5366   93.6864   10.1661 N.ar    1  UNL1       -0.1447
     31 C          67.4709   94.9235    9.3203 C.ar    1  UNL1        0.1446
     32 C          66.6143   95.9275   10.0334 C.ar    1  UNL1        0.1446
     33 N          66.1507   95.3108   11.3198 N.ar    1  UNL1       -0.1447
@<TRIPOS>BOND
     1     2     1    1
     2     2     3    1
     3     3     4    1
     4     4     5   am
     5     5     6    2
     6     5    10    1
     7    10    11   ar
     8    11    12   ar
     9    12    13   ar
    10    13    14    1
    11    13    15   ar
    12    15    16   ar
    13    16    17    1
    14    17    18   ar
    15    18    19   ar
    16    19    20   ar
    17    20    21   ar
    18     4     7    1
    19     7    22    1
    20    22    23    1
    21    23    24   ar
    22    24    25   ar
    23    25    26   ar
    24    26    27   ar
    25    27    29    1
    26    29    30   ar
    27    30    31   ar
    28    31    32   ar
    29    32    33   ar
    30    27    28   ar
    31     7     8    1
    32     8     9    1
    33     9     2    1
    34    16    10   ar
    35    21    17   ar
    36    28    23   ar
    37    33    29   ar
@<TRIPOS>MOLECULE
*****
 33 37 0 0 0
SMALL
GASTEIGER

@<TRIPOS>ATOM
      1 C          60.3459   88.5016    8.4085 C.3     1  UNL1        0.0339
      2 C          61.0459   88.8952    9.6754 C.3     1  UNL1        0.1351
      3 C          61.7342   87.8535   10.5068 C.3     1  UNL1        0.1231
      4 N          62.4342   88.2472   11.7737 N.am    1  UNL1       -0.2724
      5 C          63.1225   87.2054   12.6050 C.2     1  UNL1        0.2506
      6 O          63.8225   87.5990   13.8719 O.2     1  UNL1       -0.2699
      7 C          62.4460   89.6825   12.2092 C.3     1  UNL1        0.1096
      8 C          61.7577   90.7241   11.3779 C.3     1  UNL1        0.1621
      9 O          61.0577   90.3305   10.1110 O.3     1  UNL1       -0.3527
     10 C          63.1107   85.7701   12.1695 C.ar    1  UNL1        0.0730
     11 C          63.1341   85.4293   10.7089 C.ar    1  UNL1        0.0070
     12 C          63.1223   83.9939   10.2734 C.ar    1  UNL1        0.0116
     13 C          63.0871   82.8994   11.2984 C.ar    1  UNL1        0.0592
     14 CL         63.0754   81.4641   10.8629 Cl      1  UNL1       -0.0822
     15 C          63.0637   83.2402   12.7590 C.ar    1  UNL1        0.0324
     16 C          63.0755   84.6755   13.1945 C.ar    1  UNL1        0.1081
     17 N          63.0521   85.0163   14.6551 N.ar    1  UNL1       -0.1476
     18 N          61.8300   85.1040   15.5206 N.ar    1  UNL1       -0.1447
     19 C          62.2693   85.4711   16.9070 C.ar    1  UNL1        0.1446
     20 C          63.7628   85.6103   16.8985 C.ar    1  UNL1        0.1446
     21 N          64.2466   85.3292   15.5068 N.ar    1  UNL1       -0.1447
     22 C          63.1460   90.0761   13.4761 C.3     1  UNL1        0.0488
     23 C          64.4510   90.8130   13.4140 C.ar    1  UNL1       -0.0189
     24 C          65.4616   90.6422   14.5094 C.ar    1  UNL1       -0.0041
     25 C          66.7666   91.3791   14.4474 C.ar    1  UNL1        0.0013
     26 C          67.0612   92.2867   13.2900 C.ar    1  UNL1        0.0209
     27 C          66.0507   92.4574   12.1947 C.ar    1  UNL1        0.1026
     28 C          64.7456   91.7206   12.2567 C.ar    1  UNL1        0.0167
     29 N          66.3453   93.3650   11.0373 N.ar    1  UNL1       -0.1478
     30 N          65.5507   94.5738   10.6402 N.ar    1  UNL1       -0.1447
     31 C          66.2005   95.1790    9.4313 C.ar    1  UNL1        0.1446
     32 C          67.3966   94.3444    9.0812 C.ar    1  UNL1        0.1446
     33 N          67.4861   93.2233   10.0738 N.ar    1  UNL1       -0.1447
@<TRIPOS>BOND
     1     2     1    1
     2     2     3    1
     3     3     4    1
     4     4     5   am
     5     5     6    2
     6     5    10    1
     7    10    11   ar
     8    11    12   ar
     9    12    13   ar
    10    13    14    1
    11    13    15   ar
    12    15    16   ar
    13    16    17    1
    14    17    18   ar
    15    18    19   ar
    16    19    20   ar
    17    20    21   ar
    18     4     7    1
    19     7    22    1
    20    22    23    1
    21    23    24   ar
    22    24    25   ar
    23    25    26   ar
    24    26    27   ar
    25    27    29    1
    26    29    30   ar
    27    30    31   ar
    28    31    32   ar
    29    32    33   ar
    30    27    28   ar
    31     7     8    1
    32     8     9    1
    33     9     2    1
    34    16    10   ar
    35    21    17   ar
    36    28    23   ar
    37    33    29   ar
@<TRIPOS>MOLECULE
*****
 33 37 0 0 0
SMALL
GASTEIGER

@<TRIPOS>ATOM
      1 C          64.0750   84.0694   13.8610 C.3     1  UNL1        0.0339
      2 C          64.0391   85.5689   13.8555 C.3     1  UNL1        0.1351
      3 C          63.3830   86.2993   12.7215 C.3     1  UNL1        0.1231
      4 N          63.3471   87.7989   12.7161 N.am    1  UNL1       -0.2724
      5 C          62.6909   88.5293   11.5820 C.2     1  UNL1        0.2506
      6 O          62.6550   90.0288   11.5765 O.2     1  UNL1       -0.2699
      7 C          63.9673   88.5681   13.8446 C.3     1  UNL1        0.1096
      8 C          64.6234   87.8377   14.9786 C.3     1  UNL1        0.1621
      9 O          64.6593   86.3381   14.9841 O.3     1  UNL1       -0.3527
     10 C          62.0708   87.7601   10.4534 C.ar    1  UNL1        0.0730
     11 C          62.8926   86.7748    9.6765 C.ar    1  UNL1        0.0070
     12 C          62.2724   86.0056    8.5479 C.ar    1  UNL1        0.0116
     13 C          60.8303   86.2217    8.1963 C.ar    1  UNL1        0.0592
     14 CL         60.2101   85.4525    7.0677 Cl      1  UNL1       -0.0822
     15 C          60.0084   87.2070    8.9732 C.ar    1  UNL1        0.0324
     16 C          60.6286   87.9762   10.1018 C.ar    1  UNL1        0.1081
     17 N          59.8067   88.9615   10.8787 N.ar    1  UNL1       -0.1476
     18 N          59.0552   88.6779   12.1456 N.ar    1  UNL1       -0.1447
     19 C          58.3760   89.9446   12.5750 C.ar    1  UNL1        0.1446
     20 C          58.7078   91.0109   11.5737 C.ar    1  UNL1        0.1446
     21 N          59.5920   90.4034   10.5253 N.ar    1  UNL1       -0.1447
     22 C          63.9313   90.0676   13.8392 C.3     1  UNL1        0.0488
     23 C          65.2104   90.8482   13.7719 C.ar    1  UNL1       -0.0189
     24 C          66.1477   90.8545   14.9431 C.ar    1  UNL1       -0.0041
     25 C          67.4268   91.6351   14.8759 C.ar    1  UNL1        0.0013
     26 C          67.7686   92.4095   13.6375 C.ar    1  UNL1        0.0209
     27 C          66.8314   92.4032   12.4664 C.ar    1  UNL1        0.1026
     28 C          65.5523   91.6226   12.5336 C.ar    1  UNL1        0.0167
     29 N          67.1733   93.1776   11.2280 N.ar    1  UNL1       -0.1478
     30 N          66.8938   94.6324   10.9926 N.ar    1  UNL1       -0.1447
     31 C          67.4025   94.9870    9.6268 C.ar    1  UNL1        0.1446
     32 C          67.9963   93.7514    9.0180 C.ar    1  UNL1        0.1446
     33 N          67.8547   92.6331   10.0077 N.ar    1  UNL1       -0.1447
@<TRIPOS>BOND
     1     2     1    1
     2     2     3    1
     3     3     4    1
     4     4     5   am
     5     5     6    2
     6     5    10    1
     7    10    11   ar
     8    11    12   ar
     9    12    13   ar
    10    13    14    1
    11    13    15   ar
    12    15    16   ar
    13    16    17    1
    14    17    18   ar
    15    18    19   ar
    16    19    20   ar
    17    20    21   ar
    18     4     7    1
    19     7    22    1
    20    22    23    1
    21    23    24   ar
    22    24    25   ar
    23    25    26   ar
    24    26    27   ar
    25    27    29    1
    26    29    30   ar
    27    30    31   ar
    28    31    32   ar
    29    32    33   ar
    30    27    28   ar
    31     7     8    1
    32     8     9    1
    33     9     2    1
    34    16    10   ar
    35    21    17   ar
    36    28    23   ar
    37    33    29   ar
