@<TRIPOS>MOLECULE
*****
 27 30 0 0 0
SMALL
GASTEIGER

@<TRIPOS>ATOM
      1 C          63.1339   89.7209   14.4500 C.3     1  UNL1        0.1363
      2 N          63.8838   90.6046   13.4977 N.ar    1  UNL1       -0.2667
      3 C          63.4312   90.7262   12.0729 C.ar    1  UNL1        0.2036
      4 N          64.1811   91.6100   11.1206 N.ar    1  UNL1       -0.2133
      5 C          65.3835   92.3720   11.5933 C.ar    1  UNL1        0.1065
      6 C          65.8360   92.2504   13.0182 C.ar    1  UNL1        0.0815
      7 C          65.0862   91.3667   13.9704 C.ar    1  UNL1        0.2646
      8 O          65.5388   91.2450   15.3954 O.2     1  UNL1       -0.2668
      9 N          62.2288   89.9641   11.6001 N.pl3   1  UNL1       -0.2740
     10 C          60.8725   90.2833   12.1556 C.3     1  UNL1        0.1257
     11 C          59.6700   89.5212   11.6829 C.3     1  UNL1        0.1640
     12 O          59.8240   88.4400   10.6547 O.3     1  UNL1       -0.3483
     13 C          61.1803   88.1208   10.0992 C.3     1  UNL1        0.1572
     14 C          62.3827   88.8829   10.5719 C.3     1  UNL1        0.1276
     15 C          61.3342   87.0396    9.0710 C.ar    1  UNL1        0.0064
     16 C          62.6385   86.3105    8.9387 C.ar    1  UNL1        0.0004
     17 C          62.7924   85.2293    7.9105 C.ar    1  UNL1        0.0294
     18 C          61.6421   84.8771    7.0145 C.ar    1  UNL1        0.1401
     19 F          61.7960   83.7959    5.9863 F       1  UNL1       -0.2042
     20 C          60.3379   85.6062    7.1468 C.ar    1  UNL1        0.0294
     21 C          60.1840   86.6874    8.1750 C.ar    1  UNL1        0.0004
     22 C          66.1333   93.2558   10.6410 C.ar    1  UNL1        0.1024
     23 C          67.3156   92.7176    9.8911 C.ar    1  UNL1        0.0414
     24 C          68.0655   93.6013    8.9389 C.ar    1  UNL1        0.1023
     25 N          67.6330   95.0232    8.7366 N.ar    1  UNL1       -0.2224
     26 C          66.4507   95.5615    9.4865 C.ar    1  UNL1        0.1989
     27 N          65.7008   94.6777   10.4387 N.ar    1  UNL1       -0.2224
@<TRIPOS>BOND
     1     1     2    1
     2     2     3   ar
     3     3     9    1
     4     9    10    1
     5    10    11    1
     6    11    12    1
     7    12    13    1
     8    13    15    1
     9    15    16   ar
    10    16    17   ar
    11    17    18   ar
    12    18    19    1
    13    18    20   ar
    14    20    21   ar
    15    13    14    1
    16     3     4   ar
    17     4     5   ar
    18     5    22    1
    19    22    23   ar
    20    23    24   ar
    21    24    25   ar
    22    25    26   ar
    23    26    27   ar
    24     5     6   ar
    25     6     7   ar
    26     7     8    2
    27     7     2   ar
    28    14     9    1
    29    27    22   ar
    30    21    15   ar
@<TRIPOS>MOLECULE
*****
 27 30 0 0 0
SMALL
GASTEIGER

@<TRIPOS>ATOM
      1 C          63.4653   90.0205   14.9963 C.3     1  UNL1        0.1363
      2 N          64.1350   90.8824   13.9674 N.ar    1  UNL1       -0.2667
      3 C          63.7729   90.7397   12.5188 C.ar    1  UNL1        0.2036
      4 N          64.4426   91.6016   11.4899 N.ar    1  UNL1       -0.2133
      5 C          65.4744   92.6061   11.9096 C.ar    1  UNL1        0.1065
      6 C          65.8365   92.7488   13.3582 C.ar    1  UNL1        0.0815
      7 C          65.1668   91.8869   14.3871 C.ar    1  UNL1        0.2646
      8 O          65.5289   92.0297   15.8358 O.2     1  UNL1       -0.2668
      9 N          62.7411   89.7351   12.0990 N.pl3   1  UNL1       -0.2740
     10 C          61.3097   90.1532   11.9367 C.3     1  UNL1        0.1257
     11 C          60.2779   89.1486   11.5169 C.3     1  UNL1        0.1640
     12 O          60.6775   87.7259   11.2595 O.3     1  UNL1       -0.3483
     13 C          62.1089   87.3078   11.4220 C.3     1  UNL1        0.1572
     14 C          63.1406   88.3124   11.8417 C.3     1  UNL1        0.1276
     15 C          62.5085   85.8851   11.1646 C.ar    1  UNL1        0.0064
     16 C          62.8089   85.4316    9.7667 C.ar    1  UNL1        0.0004
     17 C          63.2085   84.0089    9.5093 C.ar    1  UNL1        0.0294
     18 C          63.3076   83.0396   10.6499 C.ar    1  UNL1        0.1401
     19 F          63.7072   81.6169   10.3926 F       1  UNL1       -0.2042
     20 C          63.0071   83.4932   12.0477 C.ar    1  UNL1        0.0294
     21 C          62.6076   84.9159   12.3051 C.ar    1  UNL1        0.0004
     22 C          66.1441   93.4680   10.8807 C.ar    1  UNL1        0.1024
     23 C          67.2373   92.9013   10.0241 C.ar    1  UNL1        0.0414
     24 C          67.9070   93.7632    8.9952 C.ar    1  UNL1        0.1023
     25 N          67.4836   95.1918    8.8229 N.ar    1  UNL1       -0.2224
     26 C          66.3905   95.7585    9.6795 C.ar    1  UNL1        0.1989
     27 N          65.7208   94.8966   10.7084 N.ar    1  UNL1       -0.2224
@<TRIPOS>BOND
     1     1     2    1
     2     2     3   ar
     3     3     9    1
     4     9    10    1
     5    10    11    1
     6    11    12    1
     7    12    13    1
     8    13    15    1
     9    15    16   ar
    10    16    17   ar
    11    17    18   ar
    12    18    19    1
    13    18    20   ar
    14    20    21   ar
    15    13    14    1
    16     3     4   ar
    17     4     5   ar
    18     5    22    1
    19    22    23   ar
    20    23    24   ar
    21    24    25   ar
    22    25    26   ar
    23    26    27   ar
    24     5     6   ar
    25     6     7   ar
    26     7     8    2
    27     7     2   ar
    28    14     9    1
    29    27    22   ar
    30    21    15   ar
@<TRIPOS>MOLECULE
*****
 27 30 0 0 0
SMALL
GASTEIGER

@<TRIPOS>ATOM
      1 C          63.4922   90.0724   14.9759 C.3     1  UNL1        0.1363
      2 N          64.1627   90.9224   13.9377 N.ar    1  UNL1       -0.2667
      3 C          63.7940   90.7705   12.4917 C.ar    1  UNL1        0.2036
      4 N          64.4644   91.6205   11.4534 N.ar    1  UNL1       -0.2133
      5 C          65.5036   92.6224   11.8612 C.ar    1  UNL1        0.1065
      6 C          65.8723   92.7743   13.3071 C.ar    1  UNL1        0.0815
      7 C          65.2019   91.9243   14.3454 C.ar    1  UNL1        0.2646
      8 O          65.5706   92.0762   15.7915 O.2     1  UNL1       -0.2668
      9 N          62.7547   89.7686   12.0839 N.pl3   1  UNL1       -0.2740
     10 C          61.3241   90.1922   11.9300 C.3     1  UNL1        0.1257
     11 C          60.2849   89.1903   11.5222 C.3     1  UNL1        0.1640
     12 O          60.6764   87.7647   11.2683 O.3     1  UNL1       -0.3483
     13 C          62.1071   87.3411   11.4222 C.3     1  UNL1        0.1572
     14 C          63.1462   88.3430   11.8300 C.3     1  UNL1        0.1276
     15 C          62.4986   85.9155   11.1683 C.ar    1  UNL1        0.0064
     16 C          62.8296   85.4652    9.7763 C.ar    1  UNL1        0.0004
     17 C          63.2212   84.0396    9.5224 C.ar    1  UNL1        0.0294
     18 C          63.2817   83.0644   10.6605 C.ar    1  UNL1        0.1401
     19 F          63.6732   81.6388   10.4066 F       1  UNL1       -0.2042
     20 C          62.9507   83.5147   12.0525 C.ar    1  UNL1        0.0294
     21 C          62.5592   84.9403   12.3064 C.ar    1  UNL1        0.0004
     22 C          66.1740   93.4724   10.8229 C.ar    1  UNL1        0.1024
     23 C          65.7536   94.9002   10.6368 C.ar    1  UNL1        0.0414
     24 C          66.4241   95.7502    9.5985 C.ar    1  UNL1        0.1023
     25 N          67.5149   95.1724    8.7464 N.ar    1  UNL1       -0.2224
     26 C          67.9353   93.7447    8.9325 C.ar    1  UNL1        0.1989
     27 N          67.2649   92.8947    9.9707 N.ar    1  UNL1       -0.2224
@<TRIPOS>BOND
     1     1     2    1
     2     2     3   ar
     3     3     9    1
     4     9    10    1
     5    10    11    1
     6    11    12    1
     7    12    13    1
     8    13    15    1
     9    15    16   ar
    10    16    17   ar
    11    17    18   ar
    12    18    19    1
    13    18    20   ar
    14    20    21   ar
    15    13    14    1
    16     3     4   ar
    17     4     5   ar
    18     5    22    1
    19    22    23   ar
    20    23    24   ar
    21    24    25   ar
    22    25    26   ar
    23    26    27   ar
    24     5     6   ar
    25     6     7   ar
    26     7     8    2
    27     7     2   ar
    28    14     9    1
    29    27    22   ar
    30    21    15   ar
@<TRIPOS>MOLECULE
*****
 27 30 0 0 0
SMALL
GASTEIGER

@<TRIPOS>ATOM
      1 C          61.2597   90.4856   10.7937 C.3     1  UNL1        0.1363
      2 N          61.6423   89.0734   11.1244 N.ar    1  UNL1       -0.2667
      3 C          62.7810   88.8050   12.0631 C.ar    1  UNL1        0.2036
      4 N          63.1635   87.3928   12.3937 N.ar    1  UNL1       -0.2133
      5 C          62.4073   86.2489   11.7856 C.ar    1  UNL1        0.1065
      6 C          61.2686   86.5173   10.8469 C.ar    1  UNL1        0.0815
      7 C          60.8861   87.9296   10.5163 C.ar    1  UNL1        0.2646
      8 O          59.7473   88.1979    9.5775 O.2     1  UNL1       -0.2668
      9 N          63.5373   89.9488   12.6712 N.pl3   1  UNL1       -0.2740
     10 C          63.5336   90.1441   14.1584 C.3     1  UNL1        0.1257
     11 C          64.2899   91.2880   14.7665 C.3     1  UNL1        0.1640
     12 O          65.0498   92.2365   13.8874 O.3     1  UNL1       -0.3483
     13 C          65.0534   92.0412   12.4001 C.3     1  UNL1        0.1572
     14 C          64.2971   90.8974   11.7921 C.3     1  UNL1        0.1276
     15 C          65.8132   92.9897   11.5210 C.ar    1  UNL1        0.0064
     16 C          65.7894   94.4616   11.8089 C.ar    1  UNL1        0.0004
     17 C          66.5493   95.4102   10.9297 C.ar    1  UNL1        0.0294
     18 C          67.3330   94.8867    9.7627 C.ar    1  UNL1        0.1401
     19 F          68.0929   95.8352    8.8835 F       1  UNL1       -0.2042
     20 C          67.3568   93.4148    9.4748 C.ar    1  UNL1        0.0294
     21 C          66.5969   92.4663   10.3540 C.ar    1  UNL1        0.0004
     22 C          62.7899   84.8367   12.1162 C.ar    1  UNL1        0.1024
     23 C          63.2616   83.9140   11.0318 C.ar    1  UNL1        0.0414
     24 C          63.6442   82.5018   11.3625 C.ar    1  UNL1        0.1023
     25 N          63.5550   82.0123   12.7775 N.ar    1  UNL1       -0.2224
     26 C          63.0832   82.9350   13.8619 C.ar    1  UNL1        0.1989
     27 N          62.7007   84.3472   13.5313 N.ar    1  UNL1       -0.2224
@<TRIPOS>BOND
     1     1     2    1
     2     2     3   ar
     3     3     9    1
     4     9    10    1
     5    10    11    1
     6    11    12    1
     7    12    13    1
     8    13    15    1
     9    15    16   ar
    10    16    17   ar
    11    17    18   ar
    12    18    19    1
    13    18    20   ar
    14    20    21   ar
    15    13    14    1
    16     3     4   ar
    17     4     5   ar
    18     5    22    1
    19    22    23   ar
    20    23    24   ar
    21    24    25   ar
    22    25    26   ar
    23    26    27   ar
    24     5     6   ar
    25     6     7   ar
    26     7     8    2
    27     7     2   ar
    28    14     9    1
    29    27    22   ar
    30    21    15   ar
@<TRIPOS>MOLECULE
*****
 27 30 0 0 0
SMALL
GASTEIGER

@<TRIPOS>ATOM
      1 C          61.6652   87.1735   11.2266 C.3     1  UNL1        0.1363
      2 N          62.4919   88.3673   11.6026 N.ar    1  UNL1       -0.2667
      3 C          63.4632   88.2781   12.7421 C.ar    1  UNL1        0.2036
      4 N          64.2899   89.4720   13.1182 N.ar    1  UNL1       -0.2133
      5 C          64.1451   90.7550   12.3548 C.ar    1  UNL1        0.1065
      6 C          63.1738   90.8442   11.2153 C.ar    1  UNL1        0.0815
      7 C          62.3471   89.6503   10.8392 C.ar    1  UNL1        0.2646
      8 O          61.3757   89.7396    9.6997 O.2     1  UNL1       -0.2668
      9 N          63.6080   86.9950   13.5056 N.pl3   1  UNL1       -0.2740
     10 C          63.9716   87.0250   14.9605 C.3     1  UNL1        0.1257
     11 C          64.1164   85.7419   15.7240 C.3     1  UNL1        0.1640
     12 O          63.8976   84.4289   15.0325 O.3     1  UNL1       -0.3483
     13 C          63.5340   84.3990   13.5775 C.3     1  UNL1        0.1572
     14 C          63.3892   85.6821   12.8141 C.3     1  UNL1        0.1276
     15 C          63.3151   83.0861   12.8859 C.ar    1  UNL1        0.0064
     16 C          62.7526   81.9222   13.6469 C.ar    1  UNL1        0.0004
     17 C          62.5337   80.6092   12.9554 C.ar    1  UNL1        0.0294
     18 C          62.8774   80.4601   11.5029 C.ar    1  UNL1        0.1401
     19 F          62.6586   79.1471   10.8114 F       1  UNL1       -0.2042
     20 C          63.4399   81.6239   10.7420 C.ar    1  UNL1        0.0294
     21 C          63.6588   82.9369   11.4335 C.ar    1  UNL1        0.0004
     22 C          64.9718   91.9488   12.7308 C.ar    1  UNL1        0.1024
     23 C          65.3657   92.9482   11.6839 C.ar    1  UNL1        0.0414
     24 C          66.1923   94.1420   12.0600 C.ar    1  UNL1        0.1023
     25 N          66.6250   94.3365   13.4829 N.ar    1  UNL1       -0.2224
     26 C          66.2311   93.3372   14.5298 C.ar    1  UNL1        0.1989
     27 N          65.4044   92.1433   14.1538 N.ar    1  UNL1       -0.2224
@<TRIPOS>BOND
     1     1     2    1
     2     2     3   ar
     3     3     9    1
     4     9    10    1
     5    10    11    1
     6    11    12    1
     7    12    13    1
     8    13    15    1
     9    15    16   ar
    10    16    17   ar
    11    17    18   ar
    12    18    19    1
    13    18    20   ar
    14    20    21   ar
    15    13    14    1
    16     3     4   ar
    17     4     5   ar
    18     5    22    1
    19    22    23   ar
    20    23    24   ar
    21    24    25   ar
    22    25    26   ar
    23    26    27   ar
    24     5     6   ar
    25     6     7   ar
    26     7     8    2
    27     7     2   ar
    28    14     9    1
    29    27    22   ar
    30    21    15   ar
@<TRIPOS>MOLECULE
*****
 27 30 0 0 0
SMALL
GASTEIGER

@<TRIPOS>ATOM
      1 C          60.0183   88.0660    9.4053 C.3     1  UNL1        0.1363
      2 N          60.9070   88.7172   10.4232 N.ar    1  UNL1       -0.2667
      3 C          62.1288   88.0022   10.9192 C.ar    1  UNL1        0.2036
      4 N          63.0175   88.6534   11.9372 N.ar    1  UNL1       -0.2133
      5 C          62.6844   90.0196   12.4591 C.ar    1  UNL1        0.1065
      6 C          61.4627   90.7347   11.9631 C.ar    1  UNL1        0.0815
      7 C          60.5740   90.0835   10.9452 C.ar    1  UNL1        0.2646
      8 O          59.3522   90.7986   10.4492 O.2     1  UNL1       -0.2668
      9 N          62.4618   86.6359   10.3973 N.pl3   1  UNL1       -0.2740
     10 C          62.8005   86.4486    8.9481 C.3     1  UNL1        0.1257
     11 C          63.1335   85.0823    8.4262 C.3     1  UNL1        0.1640
     12 O          63.1280   83.9033    9.3535 O.3     1  UNL1       -0.3483
     13 C          62.7893   84.0906   10.8028 C.3     1  UNL1        0.1572
     14 C          62.4562   85.4569   11.3247 C.3     1  UNL1        0.1276
     15 C          62.7837   82.9117   11.7302 C.ar    1  UNL1        0.0064
     16 C          62.6506   83.1216   13.2095 C.ar    1  UNL1        0.0004
     17 C          62.6450   81.9427   14.1368 C.ar    1  UNL1        0.0294
     18 C          62.7726   80.5537   13.5848 C.ar    1  UNL1        0.1401
     19 F          62.7670   79.3747   14.5122 F       1  UNL1       -0.2042
     20 C          62.9056   80.3438   12.1056 C.ar    1  UNL1        0.0294
     21 C          62.9112   81.5227   11.1783 C.ar    1  UNL1        0.0004
     22 C          63.5731   90.6708   13.4770 C.ar    1  UNL1        0.1024
     23 C          64.7852   91.4358   13.0346 C.ar    1  UNL1        0.0414
     24 C          65.6739   92.0870   14.0526 C.ar    1  UNL1        0.1023
     25 N          65.3505   91.9732   15.5128 N.ar    1  UNL1       -0.2224
     26 C          64.1385   91.2082   15.9552 C.ar    1  UNL1        0.1989
     27 N          63.2498   90.5570   14.9373 N.ar    1  UNL1       -0.2224
@<TRIPOS>BOND
     1     1     2    1
     2     2     3   ar
     3     3     9    1
     4     9    10    1
     5    10    11    1
     6    11    12    1
     7    12    13    1
     8    13    15    1
     9    15    16   ar
    10    16    17   ar
    11    17    18   ar
    12    18    19    1
    13    18    20   ar
    14    20    21   ar
    15    13    14    1
    16     3     4   ar
    17     4     5   ar
    18     5    22    1
    19    22    23   ar
    20    23    24   ar
    21    24    25   ar
    22    25    26   ar
    23    26    27   ar
    24     5     6   ar
    25     6     7   ar
    26     7     8    2
    27     7     2   ar
    28    14     9    1
    29    27    22   ar
    30    21    15   ar
@<TRIPOS>MOLECULE
*****
 27 30 0 0 0
SMALL
GASTEIGER

@<TRIPOS>ATOM
      1 C          63.8924   90.0981   16.0134 C.3     1  UNL1        0.1363
      2 N          64.5366   90.9390   14.9513 N.ar    1  UNL1       -0.2667
      3 C          64.5583   90.4636   13.5289 C.ar    1  UNL1        0.2036
      4 N          65.2024   91.3045   12.4668 N.ar    1  UNL1       -0.2133
      5 C          65.8248   92.6208   12.8272 C.ar    1  UNL1        0.1065
      6 C          65.8031   93.0962   14.2496 C.ar    1  UNL1        0.0815
      7 C          65.1590   92.2553   15.3117 C.ar    1  UNL1        0.2646
      8 O          65.1373   92.7308   16.7343 O.2     1  UNL1       -0.2668
      9 N          63.9358   89.1473   13.1684 N.pl3   1  UNL1       -0.2740
     10 C          64.2118   87.9331   14.0047 C.3     1  UNL1        0.1257
     11 C          63.5894   86.6167   13.6443 C.3     1  UNL1        0.1640
     12 O          62.6909   86.5147   12.4475 O.3     1  UNL1       -0.3483
     13 C          62.4149   87.7290   11.6111 C.3     1  UNL1        0.1572
     14 C          63.0373   89.0452   11.9716 C.3     1  UNL1        0.1276
     15 C          61.5164   87.6269   10.4143 C.ar    1  UNL1        0.0064
     16 C          61.2187   86.2857    9.8122 C.ar    1  UNL1        0.0004
     17 C          60.3203   86.1836    8.6154 C.ar    1  UNL1        0.0294
     18 C          59.7195   87.4228    8.0207 C.ar    1  UNL1        0.1401
     19 F          58.8210   87.3207    6.8239 F       1  UNL1       -0.2042
     20 C          60.0171   88.7639    8.6229 C.ar    1  UNL1        0.0294
     21 C          60.9156   88.8660    9.8197 C.ar    1  UNL1        0.0004
     22 C          66.4690   93.4616   11.7651 C.ar    1  UNL1        0.1024
     23 C          66.1659   94.9284   11.6833 C.ar    1  UNL1        0.0414
     24 C          66.8101   95.7693   10.6213 C.ar    1  UNL1        0.1023
     25 N          67.7572   95.1434    9.6409 N.ar    1  UNL1       -0.2224
     26 C          68.0603   93.6766    9.7227 C.ar    1  UNL1        0.1989
     27 N          67.4161   92.8358   10.7848 N.ar    1  UNL1       -0.2224
@<TRIPOS>BOND
     1     1     2    1
     2     2     3   ar
     3     3     9    1
     4     9    10    1
     5    10    11    1
     6    11    12    1
     7    12    13    1
     8    13    15    1
     9    15    16   ar
    10    16    17   ar
    11    17    18   ar
    12    18    19    1
    13    18    20   ar
    14    20    21   ar
    15    13    14    1
    16     3     4   ar
    17     4     5   ar
    18     5    22    1
    19    22    23   ar
    20    23    24   ar
    21    24    25   ar
    22    25    26   ar
    23    26    27   ar
    24     5     6   ar
    25     6     7   ar
    26     7     8    2
    27     7     2   ar
    28    14     9    1
    29    27    22   ar
    30    21    15   ar
@<TRIPOS>MOLECULE
*****
 27 30 0 0 0
SMALL
GASTEIGER

@<TRIPOS>ATOM
      1 C          63.1909   89.4974   15.1426 C.3     1  UNL1        0.1363
      2 N          63.8496   90.4838   14.2243 N.ar    1  UNL1       -0.2667
      3 C          63.7178   90.3288   12.7382 C.ar    1  UNL1        0.2036
      4 N          64.3765   91.3151   11.8199 N.ar    1  UNL1       -0.2133
      5 C          65.1669   92.4565   12.3877 C.ar    1  UNL1        0.1065
      6 C          65.2987   92.6115   13.8738 C.ar    1  UNL1        0.0815
      7 C          64.6400   91.6251   14.7921 C.ar    1  UNL1        0.2646
      8 O          64.7719   91.7802   16.2783 O.2     1  UNL1       -0.2668
      9 N          62.9273   89.1874   12.1703 N.pl3   1  UNL1       -0.2740
     10 C          61.7389   89.4595   11.2965 C.3     1  UNL1        0.1257
     11 C          60.9484   88.3181   10.7286 C.3     1  UNL1        0.1640
     12 O          61.3464   86.9046   11.0346 O.3     1  UNL1       -0.3483
     13 C          62.5348   86.6325   11.9085 C.3     1  UNL1        0.1572
     14 C          63.3252   87.7739   12.4764 C.3     1  UNL1        0.1276
     15 C          62.9328   85.2190   12.2146 C.ar    1  UNL1        0.0064
     16 C          62.7669   84.1512   11.1742 C.ar    1  UNL1        0.0004
     17 C          63.1649   82.7377   11.4803 C.ar    1  UNL1        0.0294
     18 C          63.7286   82.3920   12.8267 C.ar    1  UNL1        0.1401
     19 F          64.1266   80.9785   13.1327 F       1  UNL1       -0.2042
     20 C          63.8944   83.4598   13.8670 C.ar    1  UNL1        0.0294
     21 C          63.4965   84.8733   13.5609 C.ar    1  UNL1        0.0004
     22 C          65.8256   93.4428   11.4694 C.ar    1  UNL1        0.1024
     23 C          66.1536   93.0513   10.0591 C.ar    1  UNL1        0.0414
     24 C          66.8122   94.0376    9.1408 C.ar    1  UNL1        0.1023
     25 N          67.1429   95.4155    9.6328 N.ar    1  UNL1       -0.2224
     26 C          66.8150   95.8070   11.0432 C.ar    1  UNL1        0.1989
     27 N          66.1563   94.8206   11.9615 N.ar    1  UNL1       -0.2224
@<TRIPOS>BOND
     1     1     2    1
     2     2     3   ar
     3     3     9    1
     4     9    10    1
     5    10    11    1
     6    11    12    1
     7    12    13    1
     8    13    15    1
     9    15    16   ar
    10    16    17   ar
    11    17    18   ar
    12    18    19    1
    13    18    20   ar
    14    20    21   ar
    15    13    14    1
    16     3     4   ar
    17     4     5   ar
    18     5    22    1
    19    22    23   ar
    20    23    24   ar
    21    24    25   ar
    22    25    26   ar
    23    26    27   ar
    24     5     6   ar
    25     6     7   ar
    26     7     8    2
    27     7     2   ar
    28    14     9    1
    29    27    22   ar
    30    21    15   ar
@<TRIPOS>MOLECULE
*****
 27 30 0 0 0
SMALL
GASTEIGER

@<TRIPOS>ATOM
      1 C          64.4345   89.1082   14.1905 C.3     1  UNL1        0.1363
      2 N          63.5226   88.9903   13.0053 N.ar    1  UNL1       -0.2667
      3 C          63.0601   87.6393   12.5463 C.ar    1  UNL1        0.2036
      4 N          62.1482   87.5214   11.3612 N.ar    1  UNL1       -0.2133
      5 C          61.6988   88.7545   10.6350 C.ar    1  UNL1        0.1065
      6 C          62.1613   90.1055   11.0940 C.ar    1  UNL1        0.0815
      7 C          63.0732   90.2234   12.2791 C.ar    1  UNL1        0.2646
      8 O          63.5357   91.5746   12.7381 O.2     1  UNL1       -0.2668
      9 N          63.5095   86.4060   13.2725 N.pl3   1  UNL1       -0.2740
     10 C          64.2443   86.5281   14.5744 C.3     1  UNL1        0.1257
     11 C          64.6937   85.2949   15.3006 C.3     1  UNL1        0.1640
     12 O          64.4082   83.9396   14.7248 O.3     1  UNL1       -0.3483
     13 C          63.6733   83.8175   13.4228 C.3     1  UNL1        0.1572
     14 C          63.2239   85.0507   12.6967 C.3     1  UNL1        0.1276
     15 C          63.3877   82.4622   12.8470 C.ar    1  UNL1        0.0064
     16 C          63.5117   82.2336   11.3696 C.ar    1  UNL1        0.0004
     17 C          63.2262   80.8783   10.7938 C.ar    1  UNL1        0.0294
     18 C          62.8167   79.7515   11.6954 C.ar    1  UNL1        0.1401
     19 F          62.5311   78.3962   11.1195 F       1  UNL1       -0.2042
     20 C          62.6927   79.9801   13.1726 C.ar    1  UNL1        0.0294
     21 C          62.9782   81.3354   13.7484 C.ar    1  UNL1        0.0004
     22 C          60.7870   88.6366    9.4498 C.ar    1  UNL1        0.1024
     23 C          60.1560   87.3170    9.1173 C.ar    1  UNL1        0.0414
     24 C          59.2442   87.1991    7.9322 C.ar    1  UNL1        0.1023
     25 N          58.9632   88.4008    7.0795 N.ar    1  UNL1       -0.2224
     26 C          59.5942   89.7204    7.4121 C.ar    1  UNL1        0.1989
     27 N          60.5060   89.8383    8.5972 N.ar    1  UNL1       -0.2224
@<TRIPOS>BOND
     1     1     2    1
     2     2     3   ar
     3     3     9    1
     4     9    10    1
     5    10    11    1
     6    11    12    1
     7    12    13    1
     8    13    15    1
     9    15    16   ar
    10    16    17   ar
    11    17    18   ar
    12    18    19    1
    13    18    20   ar
    14    20    21   ar
    15    13    14    1
    16     3     4   ar
    17     4     5   ar
    18     5    22    1
    19    22    23   ar
    20    23    24   ar
    21    24    25   ar
    22    25    26   ar
    23    26    27   ar
    24     5     6   ar
    25     6     7   ar
    26     7     8    2
    27     7     2   ar
    28    14     9    1
    29    27    22   ar
    30    21    15   ar
