@<TRIPOS>MOLECULE
*****
 33 36 0 0 0
SMALL
GASTEIGER

@<TRIPOS>ATOM
      1 C          63.4936   89.3668   12.3950 C.ar    1  UNL1        0.0951
      2 C          62.5967   89.0839   11.2264 C.ar    1  UNL1        0.1454
      3 F          62.1970   90.1950   10.3015 F       1  UNL1       -0.2040
      4 C          62.0996   87.6898   10.9829 C.ar    1  UNL1        0.0312
      5 C          62.4994   86.5786   11.9078 C.ar    1  UNL1        0.0204
      6 C          63.3962   86.8616   13.0764 C.ar    1  UNL1        0.0924
      7 C          63.8933   88.2556   13.3200 C.ar    1  UNL1        0.1598
      8 F          64.7902   88.5387   14.4886 F       1  UNL1       -0.2026
      9 O          64.2099   91.6916   11.4830 O.2     1  UNL1       -0.2864
     10 C          63.9907   90.7610   12.6387 C.2     1  UNL1        0.2016
     11 C          64.2686   91.2243   14.0380 C.ar    1  UNL1        0.0620
     12 C          63.3454   91.0863   15.2122 C.ar    1  UNL1        0.1038
     13 N          64.0248   91.6837   16.4086 N.ar    1  UNL1       -0.2268
     14 C          65.3679   92.1909   15.9740 C.ar    1  UNL1        0.1415
     15 N          66.4731   92.8746   16.7230 N.ar    1  UNL1       -0.3374
     16 C          67.7289   93.2744   16.0068 C.ar    1  UNL1        0.0744
     17 C          67.8796   92.9904   14.5417 C.ar    1  UNL1        0.0300
     18 C          66.7745   92.3067   13.7927 C.ar    1  UNL1        0.0622
     19 CL         66.9251   92.0228   12.3275 Cl      1  UNL1       -0.0821
     20 C          65.5186   91.9070   14.5088 C.ar    1  UNL1        0.0491
     21 H          66.3742   93.0609   17.6846 H       1  UNL1        0.1674
     22 N          63.7959   85.7504   14.0014 N.pl3   1  UNL1       -0.2128
     23 H          64.3471   85.9439   14.7939 H       1  UNL1        0.1738
     24 S          63.3559   84.3445   13.7189 S.O2    1  UNL1        0.0737
     25 O          62.1218   84.5653   14.5424 O.2     1  UNL1       -0.1499
     26 O          64.5900   84.1237   12.8954 O.2     1  UNL1       -0.1499
     27 C          62.9159   82.9386   13.4364 C.ar    1  UNL1        0.1274
     28 C          62.1891   82.1544   14.4884 C.ar    1  UNL1        0.0203
     29 C          61.7491   80.7485   14.2060 C.ar    1  UNL1        0.0037
     30 C          62.0359   80.1267   12.8714 C.ar    1  UNL1        0.0297
     31 C          62.7627   80.9110   11.8193 C.ar    1  UNL1        0.1415
     32 F          63.0494   80.2892   10.4847 F       1  UNL1       -0.2041
     33 C          63.2027   82.3169   12.1018 C.ar    1  UNL1        0.0498
@<TRIPOS>BOND
     1     9    10    2
     2    10     1    1
     3     1     2   ar
     4     2     3    1
     5     2     4   ar
     6     4     5   ar
     7     5     6   ar
     8     6    22    1
     9    22    24    1
    10    24    25    2
    11    24    26    2
    12    24    27    1
    13    27    28   ar
    14    28    29   ar
    15    29    30   ar
    16    30    31   ar
    17    31    32    1
    18    31    33   ar
    19     6     7   ar
    20     7     8    1
    21    10    11    1
    22    11    12   ar
    23    12    13   ar
    24    13    14   ar
    25    14    15   ar
    26    15    16   ar
    27    16    17   ar
    28    17    18   ar
    29    18    19    1
    30    18    20   ar
    31     7     1   ar
    32    20    11   ar
    33    33    27   ar
    34    20    14    1
    35    22    23    1
    36    15    21    1
@<TRIPOS>MOLECULE
*****
 33 36 0 0 0
SMALL
GASTEIGER

@<TRIPOS>ATOM
      1 C          61.6391   88.8704   10.8576 C.ar    1  UNL1        0.0951
      2 C          60.5378   89.1519    9.8788 C.ar    1  UNL1        0.1454
      3 F          59.7799   90.4442    9.9539 F       1  UNL1       -0.2040
      4 C          60.1945   88.1412    8.8251 C.ar    1  UNL1        0.0312
      5 C          60.9524   86.8489    8.7500 C.ar    1  UNL1        0.0204
      6 C          62.0537   86.5674    9.7288 C.ar    1  UNL1        0.0924
      7 C          62.3970   87.5782   10.7825 C.ar    1  UNL1        0.1598
      8 F          63.4983   87.2967   11.7614 F       1  UNL1       -0.2026
      9 O          61.1860   89.9410   13.1811 O.2     1  UNL1       -0.2864
     10 C          61.9824   89.8812   11.9115 C.2     1  UNL1        0.2016
     11 C          63.1222   90.8322   11.6956 C.ar    1  UNL1        0.0620
     12 C          63.4058   91.5973   10.4369 C.ar    1  UNL1        0.1038
     13 N          64.6374   92.4229   10.6639 N.ar    1  UNL1       -0.2268
     14 C          65.1150   92.1680   12.0629 C.ar    1  UNL1        0.1415
     15 N          66.2815   92.7042   12.8385 N.ar    1  UNL1       -0.3374
     16 C          66.5117   92.2572   14.2517 C.ar    1  UNL1        0.0744
     17 C          65.5752   91.2740   14.8893 C.ar    1  UNL1        0.0300
     18 C          64.4087   90.7379   14.1136 C.ar    1  UNL1        0.0622
     19 CL         63.4722   89.7547   14.7512 Cl      1  UNL1       -0.0821
     20 C          64.1785   91.1849   12.7005 C.ar    1  UNL1        0.0491
     21 H          66.8961   93.3494   12.4200 H       1  UNL1        0.1674
     22 N          62.8116   85.2752    9.6537 N.pl3   1  UNL1       -0.2128
     23 H          63.3355   85.0578    8.8491 H       1  UNL1        0.1738
     24 S          62.7713   84.3141   10.8047 S.O2    1  UNL1        0.0737
     25 O          61.6032   85.0561   11.3833 O.2     1  UNL1       -0.1499
     26 O          63.9395   83.5721   10.2261 O.2     1  UNL1       -0.1499
     27 C          62.7311   83.3531   11.9556 C.ar    1  UNL1        0.1274
     28 C          62.7802   81.8756   11.7011 C.ar    1  UNL1        0.0203
     29 C          62.7399   80.9144   12.8520 C.ar    1  UNL1        0.0037
     30 C          62.6507   81.4307   14.2575 C.ar    1  UNL1        0.0297
     31 C          62.6016   82.9082   14.5120 C.ar    1  UNL1        0.1415
     32 F          62.5123   83.4244   15.9175 F       1  UNL1       -0.2041
     33 C          62.6418   83.8693   13.3611 C.ar    1  UNL1        0.0498
@<TRIPOS>BOND
     1     9    10    2
     2    10     1    1
     3     1     2   ar
     4     2     3    1
     5     2     4   ar
     6     4     5   ar
     7     5     6   ar
     8     6    22    1
     9    22    24    1
    10    24    25    2
    11    24    26    2
    12    24    27    1
    13    27    28   ar
    14    28    29   ar
    15    29    30   ar
    16    30    31   ar
    17    31    32    1
    18    31    33   ar
    19     6     7   ar
    20     7     8    1
    21    10    11    1
    22    11    12   ar
    23    12    13   ar
    24    13    14   ar
    25    14    15   ar
    26    15    16   ar
    27    16    17   ar
    28    17    18   ar
    29    18    19    1
    30    18    20   ar
    31     7     1   ar
    32    20    11   ar
    33    33    27   ar
    34    20    14    1
    35    22    23    1
    36    15    21    1
@<TRIPOS>MOLECULE
*****
 33 36 0 0 0
SMALL
GASTEIGER

@<TRIPOS>ATOM
      1 C          62.2363   86.2199   10.7176 C.ar    1  UNL1        0.0951
      2 C          61.3404   86.1747    9.5154 C.ar    1  UNL1        0.1454
      3 F          61.2311   84.9150    8.7084 F       1  UNL1       -0.2040
      4 C          60.5539   87.3892    9.1202 C.ar    1  UNL1        0.0312
      5 C          60.6633   88.6489    9.9271 C.ar    1  UNL1        0.0204
      6 C          61.5592   88.6941   11.1294 C.ar    1  UNL1        0.0924
      7 C          62.3457   87.4796   11.5246 C.ar    1  UNL1        0.1598
      8 F          63.2416   87.5247   12.7268 F       1  UNL1       -0.2026
      9 O          64.0707   84.4574   10.1900 O.2     1  UNL1       -0.2864
     10 C          63.0229   85.0053   11.1129 C.2     1  UNL1        0.2016
     11 C          62.7616   84.3388   12.4310 C.ar    1  UNL1        0.0620
     12 C          62.5302   85.0338   13.7400 C.ar    1  UNL1        0.1038
     13 N          62.3114   83.9848   14.7895 N.ar    1  UNL1       -0.2268
     14 C          62.4076   82.6413   14.1292 C.ar    1  UNL1        0.1415
     15 N          62.2778   81.2471   14.6670 N.ar    1  UNL1       -0.3374
     16 C          62.4262   80.0716   13.7471 C.ar    1  UNL1        0.0744
     17 C          62.7045   80.2904   12.2894 C.ar    1  UNL1        0.0300
     18 C          62.8343   81.6847   11.7517 C.ar    1  UNL1        0.0622
     19 CL         63.1126   81.9034   10.2941 Cl      1  UNL1       -0.0821
     20 C          62.6859   82.8601   12.6716 C.ar    1  UNL1        0.0491
     21 H          62.0952   81.1035   15.6237 H       1  UNL1        0.1674
     22 N          61.6685   89.9538   11.9363 N.pl3   1  UNL1       -0.2128
     23 H          60.8601   90.3646   12.3196 H       1  UNL1        0.1738
     24 S          63.0096   90.5876   12.1593 S.O2    1  UNL1        0.0737
     25 O          62.9056   90.2917   13.6261 O.2     1  UNL1       -0.1499
     26 O          63.1136   90.8836   10.6925 O.2     1  UNL1       -0.1499
     27 C          64.3507   91.2214   12.3822 C.ar    1  UNL1        0.1274
     28 C          64.9499   92.1004   11.3246 C.ar    1  UNL1        0.0203
     29 C          66.2910   92.7342   11.5474 C.ar    1  UNL1        0.0037
     30 C          67.0330   92.4891   12.8278 C.ar    1  UNL1        0.0297
     31 C          66.4338   91.6101   13.8854 C.ar    1  UNL1        0.1415
     32 F          67.1757   91.3650   15.1658 F       1  UNL1       -0.2041
     33 C          65.0927   90.9763   13.6626 C.ar    1  UNL1        0.0498
@<TRIPOS>BOND
     1     9    10    2
     2    10     1    1
     3     1     2   ar
     4     2     3    1
     5     2     4   ar
     6     4     5   ar
     7     5     6   ar
     8     6    22    1
     9    22    24    1
    10    24    25    2
    11    24    26    2
    12    24    27    1
    13    27    28   ar
    14    28    29   ar
    15    29    30   ar
    16    30    31   ar
    17    31    32    1
    18    31    33   ar
    19     6     7   ar
    20     7     8    1
    21    10    11    1
    22    11    12   ar
    23    12    13   ar
    24    13    14   ar
    25    14    15   ar
    26    15    16   ar
    27    16    17   ar
    28    17    18   ar
    29    18    19    1
    30    18    20   ar
    31     7     1   ar
    32    20    11   ar
    33    33    27   ar
    34    20    14    1
    35    22    23    1
    36    15    21    1
@<TRIPOS>MOLECULE
*****
 33 36 0 0 0
SMALL
GASTEIGER

@<TRIPOS>ATOM
      1 C          63.5124   89.6582   12.6969 C.ar    1  UNL1        0.0951
      2 C          62.8283   89.3807   11.3912 C.ar    1  UNL1        0.1454
      3 F          62.4637   90.5148   10.4796 F       1  UNL1       -0.2040
      4 C          62.5088   87.9691   10.9970 C.ar    1  UNL1        0.0312
      5 C          62.8734   86.8351   11.9086 C.ar    1  UNL1        0.0204
      6 C          63.5575   87.1125   13.2143 C.ar    1  UNL1        0.0924
      7 C          63.8770   88.5241   13.6085 C.ar    1  UNL1        0.1598
      8 F          64.5611   88.8016   14.9143 F       1  UNL1       -0.2026
      9 O          62.7550   91.9566   13.6420 O.2     1  UNL1       -0.2864
     10 C          63.8319   91.0698   13.0912 C.2     1  UNL1        0.2016
     11 C          65.2285   91.5944   12.9345 C.ar    1  UNL1        0.0620
     12 C          65.9627   91.7737   11.6388 C.ar    1  UNL1        0.1038
     13 N          67.3239   92.3219   11.9496 N.ar    1  UNL1       -0.2268
     14 C          67.4309   92.4815   13.4372 C.ar    1  UNL1        0.1415
     15 N          68.5403   92.9781   14.3162 N.ar    1  UNL1       -0.3374
     16 C          68.3545   93.0250   15.8039 C.ar    1  UNL1        0.0744
     17 C          67.0594   92.5754   16.4126 C.ar    1  UNL1        0.0300
     18 C          65.9501   92.0788   15.5336 C.ar    1  UNL1        0.0622
     19 CL         64.6550   91.6291   16.1423 Cl      1  UNL1       -0.0821
     20 C          66.1358   92.0318   14.0459 C.ar    1  UNL1        0.0491
     21 H          69.3903   93.2732   13.9167 H       1  UNL1        0.1674
     22 N          63.9221   85.9784   14.1259 N.pl3   1  UNL1       -0.2128
     23 H          64.4571   86.1493   14.9345 H       1  UNL1        0.1738
     24 S          63.4715   84.5841   13.8054 S.O2    1  UNL1        0.0737
     25 O          64.8022   84.2991   13.1745 O.2     1  UNL1       -0.1499
     26 O          62.1409   84.8690   14.4364 O.2     1  UNL1       -0.1499
     27 C          63.0209   83.1897   13.4850 C.ar    1  UNL1        0.1274
     28 C          62.3185   82.3705   14.5270 C.ar    1  UNL1        0.0203
     29 C          61.8679   80.9761   14.2066 C.ar    1  UNL1        0.0037
     30 C          62.1195   80.4009   12.8443 C.ar    1  UNL1        0.0297
     31 C          62.8219   81.2202   11.8024 C.ar    1  UNL1        0.1415
     32 F          63.0735   80.6450   10.4401 F       1  UNL1       -0.2041
     33 C          63.2725   82.6146   12.1227 C.ar    1  UNL1        0.0498
@<TRIPOS>BOND
     1     9    10    2
     2    10     1    1
     3     1     2   ar
     4     2     3    1
     5     2     4   ar
     6     4     5   ar
     7     5     6   ar
     8     6    22    1
     9    22    24    1
    10    24    25    2
    11    24    26    2
    12    24    27    1
    13    27    28   ar
    14    28    29   ar
    15    29    30   ar
    16    30    31   ar
    17    31    32    1
    18    31    33   ar
    19     6     7   ar
    20     7     8    1
    21    10    11    1
    22    11    12   ar
    23    12    13   ar
    24    13    14   ar
    25    14    15   ar
    26    15    16   ar
    27    16    17   ar
    28    17    18   ar
    29    18    19    1
    30    18    20   ar
    31     7     1   ar
    32    20    11   ar
    33    33    27   ar
    34    20    14    1
    35    22    23    1
    36    15    21    1
@<TRIPOS>MOLECULE
*****
 33 36 0 0 0
SMALL
GASTEIGER

@<TRIPOS>ATOM
      1 C          62.6677   86.4856   11.9946 C.ar    1  UNL1        0.0951
      2 C          61.6678   86.1030   10.9440 C.ar    1  UNL1        0.1454
      3 F          61.5145   84.6658   10.5425 F       1  UNL1       -0.2040
      4 C          60.8213   87.1575   10.2949 C.ar    1  UNL1        0.0312
      5 C          60.9746   88.5946   10.6964 C.ar    1  UNL1        0.0204
      6 C          61.9745   88.9772   11.7470 C.ar    1  UNL1        0.0924
      7 C          62.8210   87.9227   12.3961 C.ar    1  UNL1        0.1598
      8 F          63.8209   88.3053   13.4468 F       1  UNL1       -0.2026
      9 O          64.2816   85.7492   13.8927 O.2     1  UNL1       -0.2864
     10 C          63.5143   85.4311   12.6438 C.2     1  UNL1        0.2016
     11 C          63.5935   84.0585   12.0440 C.ar    1  UNL1        0.0620
     12 C          64.2553   83.7002   10.7464 C.ar    1  UNL1        0.1038
     13 N          64.0956   82.2235   10.5369 N.ar    1  UNL1       -0.2268
     14 C          63.3351   81.6692   11.7050 C.ar    1  UNL1        0.1415
     15 N          62.8851   80.2783   12.0408 N.ar    1  UNL1       -0.3374
     16 C          62.1248   80.0215   13.3080 C.ar    1  UNL1        0.0744
     17 C          61.8145   81.1556   14.2395 C.ar    1  UNL1        0.0300
     18 C          62.2645   82.5465   13.9036 C.ar    1  UNL1        0.0622
     19 CL         61.9542   83.6806   14.8351 Cl      1  UNL1       -0.0821
     20 C          63.0248   82.8033   12.6364 C.ar    1  UNL1        0.0491
     21 H          63.0887   79.5339   11.4295 H       1  UNL1        0.1674
     22 N          62.1278   90.4143   12.1485 N.pl3   1  UNL1       -0.2128
     23 H          61.3347   90.9937   12.2167 H       1  UNL1        0.1738
     24 S          63.4894   90.9687   12.4461 S.O2    1  UNL1        0.0737
     25 O          63.1529   91.0109   13.9073 O.2     1  UNL1       -0.1499
     26 O          63.8260   90.9265   10.9850 O.2     1  UNL1       -0.1499
     27 C          64.8510   91.5231   12.7437 C.ar    1  UNL1        0.1274
     28 C          65.5142   92.4480   11.7665 C.ar    1  UNL1        0.0203
     29 C          66.8759   93.0024   12.0639 C.ar    1  UNL1        0.0037
     30 C          67.5744   92.6320   13.3386 C.ar    1  UNL1        0.0297
     31 C          66.9113   91.7071   14.3158 C.ar    1  UNL1        0.1415
     32 F          67.6098   91.3366   15.5904 F       1  UNL1       -0.2041
     33 C          65.5496   91.1527   14.0183 C.ar    1  UNL1        0.0498
@<TRIPOS>BOND
     1     9    10    2
     2    10     1    1
     3     1     2   ar
     4     2     3    1
     5     2     4   ar
     6     4     5   ar
     7     5     6   ar
     8     6    22    1
     9    22    24    1
    10    24    25    2
    11    24    26    2
    12    24    27    1
    13    27    28   ar
    14    28    29   ar
    15    29    30   ar
    16    30    31   ar
    17    31    32    1
    18    31    33   ar
    19     6     7   ar
    20     7     8    1
    21    10    11    1
    22    11    12   ar
    23    12    13   ar
    24    13    14   ar
    25    14    15   ar
    26    15    16   ar
    27    16    17   ar
    28    17    18   ar
    29    18    19    1
    30    18    20   ar
    31     7     1   ar
    32    20    11   ar
    33    33    27   ar
    34    20    14    1
    35    22    23    1
    36    15    21    1
@<TRIPOS>MOLECULE
*****
 33 36 0 0 0
SMALL
GASTEIGER

@<TRIPOS>ATOM
      1 C          63.2642   83.5815   11.4486 C.ar    1  UNL1        0.0951
      2 C          63.1503   82.0906   11.3295 C.ar    1  UNL1        0.1454
      3 F          62.7501   81.4709   10.0234 F       1  UNL1       -0.2040
      4 C          63.4367   81.2194   12.5165 C.ar    1  UNL1        0.0312
      5 C          63.8369   81.8391   13.8226 C.ar    1  UNL1        0.0204
      6 C          63.9508   83.3301   13.9416 C.ar    1  UNL1        0.0924
      7 C          63.6644   84.2012   12.7546 C.ar    1  UNL1        0.1598
      8 F          63.7783   85.6922   12.8736 F       1  UNL1       -0.2026
      9 O          63.6858   84.2065    8.9623 O.2     1  UNL1       -0.2864
     10 C          62.9779   84.4528   10.2615 C.2     1  UNL1        0.2016
     11 C          61.9836   85.5703   10.3738 C.ar    1  UNL1        0.0620
     12 C          61.6658   86.3460   11.6177 C.ar    1  UNL1        0.1038
     13 N          60.6183   87.3633   11.2745 N.ar    1  UNL1       -0.2268
     14 C          60.2887   87.2164    9.8186 C.ar    1  UNL1        0.1415
     15 N          59.3293   87.9485    8.9278 N.ar    1  UNL1       -0.3374
     16 C          59.2136   87.5723    7.4804 C.ar    1  UNL1        0.0744
     17 C          60.0574   86.4641    6.9237 C.ar    1  UNL1        0.0300
     18 C          61.0168   85.7321    7.8145 C.ar    1  UNL1        0.0622
     19 CL         61.8606   84.6239    7.2578 Cl      1  UNL1       -0.0821
     20 C          61.1325   86.1082    9.2619 C.ar    1  UNL1        0.0491
     21 H          58.7754   88.6758    9.2932 H       1  UNL1        0.1674
     22 N          64.3510   83.9497   15.2477 N.pl3   1  UNL1       -0.2128
     23 H          64.7602   83.3952   15.9508 H       1  UNL1        0.1738
     24 S          64.1278   85.4143   15.4825 S.O2    1  UNL1        0.0737
     25 O          62.7127   85.1329   15.8928 O.2     1  UNL1       -0.1499
     26 O          65.5429   85.6958   15.0722 O.2     1  UNL1       -0.1499
     27 C          63.9047   86.8789   15.7173 C.ar    1  UNL1        0.1274
     28 C          63.1951   87.3404   16.9557 C.ar    1  UNL1        0.0203
     29 C          62.9720   88.8050   17.1906 C.ar    1  UNL1        0.0037
     30 C          63.4584   89.8082   16.1871 C.ar    1  UNL1        0.0297
     31 C          64.1680   89.3466   14.9487 C.ar    1  UNL1        0.1415
     32 F          64.6544   90.3498   13.9452 F       1  UNL1       -0.2041
     33 C          64.3911   87.8821   14.7138 C.ar    1  UNL1        0.0498
@<TRIPOS>BOND
     1     9    10    2
     2    10     1    1
     3     1     2   ar
     4     2     3    1
     5     2     4   ar
     6     4     5   ar
     7     5     6   ar
     8     6    22    1
     9    22    24    1
    10    24    25    2
    11    24    26    2
    12    24    27    1
    13    27    28   ar
    14    28    29   ar
    15    29    30   ar
    16    30    31   ar
    17    31    32    1
    18    31    33   ar
    19     6     7   ar
    20     7     8    1
    21    10    11    1
    22    11    12   ar
    23    12    13   ar
    24    13    14   ar
    25    14    15   ar
    26    15    16   ar
    27    16    17   ar
    28    17    18   ar
    29    18    19    1
    30    18    20   ar
    31     7     1   ar
    32    20    11   ar
    33    33    27   ar
    34    20    14    1
    35    22    23    1
    36    15    21    1
@<TRIPOS>MOLECULE
*****
 33 36 0 0 0
SMALL
GASTEIGER

@<TRIPOS>ATOM
      1 C          63.2998   87.6654   12.6827 C.ar    1  UNL1        0.0951
      2 C          64.0344   87.4570   13.9738 C.ar    1  UNL1        0.1454
      3 F          64.2115   86.0716   14.5208 F       1  UNL1       -0.2040
      4 C          64.5919   88.6341   14.7178 C.ar    1  UNL1        0.0312
      5 C          64.4149   90.0195   14.1708 C.ar    1  UNL1        0.0204
      6 C          63.6803   90.2279   12.8797 C.ar    1  UNL1        0.0924
      7 C          63.1228   89.0508   12.1356 C.ar    1  UNL1        0.1598
      8 F          62.3881   89.2591   10.8445 F       1  UNL1       -0.2026
      9 O          63.2441   85.1065   12.2365 O.2     1  UNL1       -0.2864
     10 C          62.7423   86.4882   11.9385 C.2     1  UNL1        0.2016
     11 C          61.6829   86.6930   10.8965 C.ar    1  UNL1        0.0620
     12 C          60.4431   87.5231   11.0508 C.ar    1  UNL1        0.1038
     13 N          59.6714   87.4467    9.7668 N.ar    1  UNL1       -0.2268
     14 C          60.4342   86.5694    8.8190 C.ar    1  UNL1        0.1415
     15 N          60.1574   86.1345    7.4104 N.ar    1  UNL1       -0.3374
     16 C          61.1238   85.2338    6.6999 C.ar    1  UNL1        0.0744
     17 C          62.3670   84.7680    7.3981 C.ar    1  UNL1        0.0300
     18 C          62.6438   85.2029    8.8067 C.ar    1  UNL1        0.0622
     19 CL         63.8870   84.7371    9.5049 Cl      1  UNL1       -0.0821
     20 C          61.6774   86.1036    9.5171 C.ar    1  UNL1        0.0491
     21 H          59.3414   86.4403    6.9521 H       1  UNL1        0.1674
     22 N          63.5032   91.6133   12.3327 N.pl3   1  UNL1       -0.2128
     23 H          62.6479   92.0852   12.4549 H       1  UNL1        0.1738
     24 S          64.6293   92.2797   11.5994 S.O2    1  UNL1        0.0737
     25 O          64.0478   91.8254   10.2935 O.2     1  UNL1       -0.1499
     26 O          65.2108   92.7340   12.9053 O.2     1  UNL1       -0.1499
     27 C          65.7555   92.9461   10.8662 C.ar    1  UNL1        0.1274
     28 C          65.7447   94.4327   10.6665 C.ar    1  UNL1        0.0203
     29 C          66.8708   95.0992    9.9333 C.ar    1  UNL1        0.0037
     30 C          68.0078   94.2791    9.3997 C.ar    1  UNL1        0.0297
     31 C          68.0186   92.7925    9.5994 C.ar    1  UNL1        0.1415
     32 F          69.1555   91.9724    9.0658 F       1  UNL1       -0.2041
     33 C          66.8924   92.1260   10.3326 C.ar    1  UNL1        0.0498
@<TRIPOS>BOND
     1     9    10    2
     2    10     1    1
     3     1     2   ar
     4     2     3    1
     5     2     4   ar
     6     4     5   ar
     7     5     6   ar
     8     6    22    1
     9    22    24    1
    10    24    25    2
    11    24    26    2
    12    24    27    1
    13    27    28   ar
    14    28    29   ar
    15    29    30   ar
    16    30    31   ar
    17    31    32    1
    18    31    33   ar
    19     6     7   ar
    20     7     8    1
    21    10    11    1
    22    11    12   ar
    23    12    13   ar
    24    13    14   ar
    25    14    15   ar
    26    15    16   ar
    27    16    17   ar
    28    17    18   ar
    29    18    19    1
    30    18    20   ar
    31     7     1   ar
    32    20    11   ar
    33    33    27   ar
    34    20    14    1
    35    22    23    1
    36    15    21    1
@<TRIPOS>MOLECULE
*****
 33 36 0 0 0
SMALL
GASTEIGER

@<TRIPOS>ATOM
      1 C          63.0450   87.1848   12.2672 C.ar    1  UNL1        0.0951
      2 C          62.1811   87.0785   11.0456 C.ar    1  UNL1        0.1454
      3 F          61.7231   85.7332   10.5657 F       1  UNL1       -0.2040
      4 C          61.7754   88.3175   10.3039 C.ar    1  UNL1        0.0312
      5 C          62.2334   89.6628   10.7838 C.ar    1  UNL1        0.0204
      6 C          63.0973   89.7691   12.0055 C.ar    1  UNL1        0.0924
      7 C          63.5031   88.5301   12.7471 C.ar    1  UNL1        0.1598
      8 F          64.3670   88.6363   13.9688 F       1  UNL1       -0.2026
      9 O          63.8204   86.0278   14.4604 O.2     1  UNL1       -0.2864
     10 C          63.4508   85.9457   13.0090 C.2     1  UNL1        0.2016
     11 C          63.4871   84.6247   12.2993 C.ar    1  UNL1        0.0620
     12 C          64.0606   84.3714   10.9366 C.ar    1  UNL1        0.1038
     13 N          63.8841   82.9153   10.6229 N.ar    1  UNL1       -0.2268
     14 C          63.2015   82.2686   11.7916 C.ar    1  UNL1        0.1415
     15 N          62.7716   80.8543   12.0462 N.ar    1  UNL1       -0.3374
     16 C          62.0964   80.4965   13.3370 C.ar    1  UNL1        0.0744
     17 C          61.8511   81.5531   14.3731 C.ar    1  UNL1        0.0300
     18 C          62.2809   82.9674   14.1185 C.ar    1  UNL1        0.0622
     19 CL         62.0355   84.0239   15.1546 Cl      1  UNL1       -0.0821
     20 C          62.9561   83.3252   12.8277 C.ar    1  UNL1        0.0491
     21 H          62.9327   80.1609   11.3662 H       1  UNL1        0.1674
     22 N          63.5554   91.1144   12.4854 N.pl3   1  UNL1       -0.2128
     23 H          63.1721   91.5012   13.3056 H       1  UNL1        0.1738
     24 S          64.5973   91.8705   11.7155 S.O2    1  UNL1        0.0737
     25 O          63.6697   91.9514   10.5395 O.2     1  UNL1       -0.1499
     26 O          65.5249   91.7896   12.8915 O.2     1  UNL1       -0.1499
     27 C          65.6394   92.6265   10.9458 C.ar    1  UNL1        0.1274
     28 C          65.4323   94.0782   10.6299 C.ar    1  UNL1        0.0203
     29 C          66.4743   94.8344    9.8601 C.ar    1  UNL1        0.0037
     30 C          67.7234   94.1388    9.4062 C.ar    1  UNL1        0.0297
     31 C          67.9304   92.6871    9.7221 C.ar    1  UNL1        0.1415
     32 F          69.1794   91.9916    9.2682 F       1  UNL1       -0.2041
     33 C          66.8884   91.9310   10.4919 C.ar    1  UNL1        0.0498
@<TRIPOS>BOND
     1     9    10    2
     2    10     1    1
     3     1     2   ar
     4     2     3    1
     5     2     4   ar
     6     4     5   ar
     7     5     6   ar
     8     6    22    1
     9    22    24    1
    10    24    25    2
    11    24    26    2
    12    24    27    1
    13    27    28   ar
    14    28    29   ar
    15    29    30   ar
    16    30    31   ar
    17    31    32    1
    18    31    33   ar
    19     6     7   ar
    20     7     8    1
    21    10    11    1
    22    11    12   ar
    23    12    13   ar
    24    13    14   ar
    25    14    15   ar
    26    15    16   ar
    27    16    17   ar
    28    17    18   ar
    29    18    19    1
    30    18    20   ar
    31     7     1   ar
    32    20    11   ar
    33    33    27   ar
    34    20    14    1
    35    22    23    1
    36    15    21    1
@<TRIPOS>MOLECULE
*****
 33 36 0 0 0
SMALL
GASTEIGER

@<TRIPOS>ATOM
      1 C          63.4689   87.3409   12.9135 C.ar    1  UNL1        0.0951
      2 C          64.3252   87.1835   14.1350 C.ar    1  UNL1        0.1454
      3 F          64.6183   85.8147   14.6741 F       1  UNL1       -0.2040
      4 C          64.8884   88.3948   14.8173 C.ar    1  UNL1        0.0312
      5 C          64.5953   89.7635   14.2782 C.ar    1  UNL1        0.0204
      6 C          63.7390   89.9210   13.0567 C.ar    1  UNL1        0.0924
      7 C          63.1759   88.7097   12.3744 C.ar    1  UNL1        0.1598
      8 F          62.3195   88.8670   11.1529 F       1  UNL1       -0.2026
      9 O          62.5999   86.1700   10.7633 O.2     1  UNL1       -0.2864
     10 C          62.9057   86.1296   12.2311 C.2     1  UNL1        0.2016
     11 C          62.6484   84.8779   13.0167 C.ar    1  UNL1        0.0620
     12 C          62.1710   84.8109   14.4371 C.ar    1  UNL1        0.1038
     13 N          62.0509   83.3651   14.8180 N.ar    1  UNL1       -0.2268
     14 C          62.4541   82.5385   13.6331 C.ar    1  UNL1        0.1415
     15 N          62.5327   81.0552   13.4240 N.ar    1  UNL1       -0.3374
     16 C          62.9806   80.5070   12.1016 C.ar    1  UNL1        0.0744
     17 C          63.3499   81.4420   10.9883 C.ar    1  UNL1        0.0300
     18 C          63.2713   82.9252   11.1974 C.ar    1  UNL1        0.0622
     19 CL         63.6406   83.8602   10.0841 Cl      1  UNL1       -0.0821
     20 C          62.8234   83.4735   12.5198 C.ar    1  UNL1        0.0491
     21 H          62.2903   80.4416   14.1547 H       1  UNL1        0.1674
     22 N          63.4459   91.2897   12.5176 N.pl3   1  UNL1       -0.2128
     23 H          62.5592   91.6941   12.6569 H       1  UNL1        0.1738
     24 S          64.5038   92.0422   11.7663 S.O2    1  UNL1        0.0737
     25 O          65.1068   92.4906   13.0645 O.2     1  UNL1       -0.1499
     26 O          63.9009   91.5938   10.4681 O.2     1  UNL1       -0.1499
     27 C          65.5617   92.7947   11.0149 C.ar    1  UNL1        0.1274
     28 C          65.3954   94.2623   10.7533 C.ar    1  UNL1        0.0203
     29 C          66.4533   95.0149   10.0019 C.ar    1  UNL1        0.0037
     30 C          67.6775   94.2998    9.5121 C.ar    1  UNL1        0.0297
     31 C          67.8438   92.8322    9.7737 C.ar    1  UNL1        0.1415
     32 F          69.0680   92.1171    9.2839 F       1  UNL1       -0.2041
     33 C          66.7860   92.0796   10.5251 C.ar    1  UNL1        0.0498
@<TRIPOS>BOND
     1     9    10    2
     2    10     1    1
     3     1     2   ar
     4     2     3    1
     5     2     4   ar
     6     4     5   ar
     7     5     6   ar
     8     6    22    1
     9    22    24    1
    10    24    25    2
    11    24    26    2
    12    24    27    1
    13    27    28   ar
    14    28    29   ar
    15    29    30   ar
    16    30    31   ar
    17    31    32    1
    18    31    33   ar
    19     6     7   ar
    20     7     8    1
    21    10    11    1
    22    11    12   ar
    23    12    13   ar
    24    13    14   ar
    25    14    15   ar
    26    15    16   ar
    27    16    17   ar
    28    17    18   ar
    29    18    19    1
    30    18    20   ar
    31     7     1   ar
    32    20    11   ar
    33    33    27   ar
    34    20    14    1
    35    22    23    1
    36    15    21    1
