@<TRIPOS>MOLECULE
*****
 31 33 0 0 0
SMALL
GASTEIGER

@<TRIPOS>ATOM
      1 C          63.1580   89.4209   12.9680 C.ar    1  UNL1        0.2296
      2 N          63.2891   89.0574   14.4173 N.ar    1  UNL1       -0.2098
      3 C          64.1441   89.8909   15.3252 C.ar    1  UNL1        0.1021
      4 C          64.8681   91.0878   14.7837 C.ar    1  UNL1        0.0209
      5 C          64.7371   91.4513   13.3343 C.ar    1  UNL1        0.0062
      6 C          65.4611   92.6482   12.7928 C.ar    1  UNL1        0.0048
      7 C          65.3300   93.0117   11.3435 C.ar    1  UNL1        0.0548
      8 C          64.4749   92.1782   10.4355 C.ar    1  UNL1        0.0047
      9 C          63.7509   90.9813   10.9770 C.ar    1  UNL1        0.0048
     10 C          63.8820   90.6179   12.4265 C.ar    1  UNL1        0.0536
     11 C          66.0540   94.2086   10.8020 C.2     1  UNL1        0.2640
     12 O          66.7397   95.1579   11.7395 O.2     1  UNL1       -0.2686
     13 N          66.0924   94.4562    9.3231 N.am    1  UNL1       -0.1852
     14 H          65.6424   93.8332    8.7078 H       1  UNL1        0.1765
     15 S          66.8164   95.6531    8.7816 S.O2    1  UNL1        0.0581
     16 C          67.5404   96.8500    8.2401 C.3     1  UNL1        0.1997
     17 O          68.0708   94.8395    8.6604 O.2     1  UNL1       -0.1543
     18 O          65.5621   96.4667    8.9028 O.2     1  UNL1       -0.1543
     19 O          62.3029   88.5875   12.0600 O.3     1  UNL1       -0.4345
     20 C          63.1402   84.1912   11.5898 C.ar    1  UNL1        0.2359
     21 N          62.3929   84.9309   10.5202 N.ar    1  UNL1       -0.2062
     22 C          62.1138   86.3964   10.6769 C.ar    1  UNL1        0.1395
     23 C          62.5820   87.1221   11.9033 C.ar    1  UNL1        0.1673
     24 C          63.3294   86.3823   12.9731 C.ar    1  UNL1        0.0553
     25 C          63.6085   84.9169   12.8163 C.ar    1  UNL1        0.1138
     26 CL         64.3558   84.1771   13.8860 Cl      1  UNL1       -0.0773
     27 O          63.4193   82.7257   11.4331 O.3     1  UNL1       -0.4597
     28 C          62.3876   81.7176   11.8442 C.3     1  UNL1        0.2070
     29 C          63.7198   80.7123   13.8354 C.3     1  UNL1        0.0038
     30 C          62.4160   81.1364   13.2268 C.3     1  UNL1        0.0438
     31 C          61.1407   80.9792   14.0007 C.3     1  UNL1        0.0038
@<TRIPOS>BOND
     1    29    30    1
     2    30    31    1
     3    30    28    1
     4    28    27    1
     5    27    20    1
     6    20    21   ar
     7    21    22   ar
     8    22    23   ar
     9    23    19    1
    10    19     1    1
    11     1     2   ar
    12     2     3   ar
    13     3     4   ar
    14     4     5   ar
    15     5     6   ar
    16     6     7   ar
    17     7    11    1
    18    11    12    2
    19    11    13   am
    20    13    15    1
    21    15    16    1
    22    15    17    2
    23    15    18    2
    24     7     8   ar
    25     8     9   ar
    26     9    10   ar
    27    23    24   ar
    28    24    25   ar
    29    25    26    1
    30    25    20   ar
    31    10     1   ar
    32    10     5   ar
    33    13    14    1
@<TRIPOS>MOLECULE
*****
 31 33 0 0 0
SMALL
GASTEIGER

@<TRIPOS>ATOM
      1 C          62.7660   89.2557   11.9153 C.ar    1  UNL1        0.2296
      2 N          62.0819   89.9496   10.7750 N.ar    1  UNL1       -0.2098
      3 C          61.4082   89.1451    9.7031 C.ar    1  UNL1        0.1021
      4 C          61.4187   87.6467    9.7716 C.ar    1  UNL1        0.0209
      5 C          62.1029   86.9528   10.9119 C.ar    1  UNL1        0.0062
      6 C          62.1134   85.4544   10.9803 C.ar    1  UNL1        0.0048
      7 C          62.7976   84.7605   12.1207 C.ar    1  UNL1        0.0548
      8 C          63.4713   85.5650   13.1926 C.ar    1  UNL1        0.0047
      9 C          63.4607   87.0634   13.1242 C.ar    1  UNL1        0.0048
     10 C          62.7765   87.7573   11.9838 C.ar    1  UNL1        0.0536
     11 C          62.8081   83.2621   12.1891 C.2     1  UNL1        0.2640
     12 O          63.1607   82.4582   10.9727 O.2     1  UNL1       -0.2686
     13 N          62.4660   82.5676   13.4738 N.am    1  UNL1       -0.1852
     14 H          62.2346   83.0952   14.2722 H       1  UNL1        0.1765
     15 S          62.4766   81.0692   13.5423 S.O2    1  UNL1        0.0581
     16 C          62.4871   79.5708   13.6107 C.3     1  UNL1        0.1997
     17 O          60.9826   81.0649   13.6771 O.2     1  UNL1       -0.1543
     18 O          63.9705   81.0735   13.4075 O.2     1  UNL1       -0.1543
     19 O          63.4397   90.0602   12.9873 O.3     1  UNL1       -0.4345
     20 C          66.0677   93.5391   11.8732 C.ar    1  UNL1        0.2359
     21 N          65.1728   92.9153   10.8437 N.ar    1  UNL1       -0.2062
     22 C          64.2968   91.7556   11.2150 C.ar    1  UNL1        0.1395
     23 C          64.3157   91.2198   12.6159 C.ar    1  UNL1        0.1673
     24 C          65.2106   91.8437   13.6456 C.ar    1  UNL1        0.0553
     25 C          66.0866   93.0033   13.2742 C.ar    1  UNL1        0.1138
     26 CL         66.9814   93.6272   14.3038 Cl      1  UNL1       -0.0773
     27 O          66.9437   94.6987   11.5019 O.3     1  UNL1       -0.4597
     28 C          66.5226   95.6375   10.4104 C.3     1  UNL1        0.2070
     29 C          67.7364   94.2914    8.5490 C.3     1  UNL1        0.0038
     30 C          67.2071   95.5921    9.0765 C.3     1  UNL1        0.0438
     31 C          67.3625   96.8473    8.2701 C.3     1  UNL1        0.0038
@<TRIPOS>BOND
     1    29    30    1
     2    30    31    1
     3    30    28    1
     4    28    27    1
     5    27    20    1
     6    20    21   ar
     7    21    22   ar
     8    22    23   ar
     9    23    19    1
    10    19     1    1
    11     1     2   ar
    12     2     3   ar
    13     3     4   ar
    14     4     5   ar
    15     5     6   ar
    16     6     7   ar
    17     7    11    1
    18    11    12    2
    19    11    13   am
    20    13    15    1
    21    15    16    1
    22    15    17    2
    23    15    18    2
    24     7     8   ar
    25     8     9   ar
    26     9    10   ar
    27    23    24   ar
    28    24    25   ar
    29    25    26    1
    30    25    20   ar
    31    10     1   ar
    32    10     5   ar
    33    13    14    1
@<TRIPOS>MOLECULE
*****
 31 33 0 0 0
SMALL
GASTEIGER

@<TRIPOS>ATOM
      1 C          61.9972   88.7723   11.3522 C.ar    1  UNL1        0.2296
      2 N          61.5103   89.0512    9.9611 N.ar    1  UNL1       -0.2098
      3 C          62.0269   90.2427    9.2105 C.ar    1  UNL1        0.1021
      4 C          63.0305   91.1552    9.8510 C.ar    1  UNL1        0.0209
      5 C          63.5174   90.8762   11.2420 C.ar    1  UNL1        0.0062
      6 C          64.5210   91.7888   11.8825 C.ar    1  UNL1        0.0048
      7 C          65.0078   91.5098   13.2735 C.ar    1  UNL1        0.0548
      8 C          64.4912   90.3183   14.0242 C.ar    1  UNL1        0.0047
      9 C          63.4876   89.4058   13.3838 C.ar    1  UNL1        0.0048
     10 C          63.0007   89.6848   11.9926 C.ar    1  UNL1        0.0536
     11 C          66.0114   92.4223   13.9140 C.2     1  UNL1        0.2640
     12 O          65.9126   93.9055   13.7123 O.2     1  UNL1       -0.2686
     13 N          67.1137   91.8518   14.7562 N.am    1  UNL1       -0.1852
     14 H          67.1786   90.8784   14.8886 H       1  UNL1        0.1765
     15 S          68.1173   92.7643   15.3966 S.O2    1  UNL1        0.0581
     16 C          69.1208   93.6768   16.0371 C.3     1  UNL1        0.1997
     17 O          67.1788   92.9907   16.5447 O.2     1  UNL1       -0.1543
     18 O          69.0558   92.5380   14.2486 O.2     1  UNL1       -0.1543
     19 O          61.4805   87.5808   12.1029 O.3     1  UNL1       -0.4345
     20 C          63.7923   83.7202   12.0623 C.ar    1  UNL1        0.2359
     21 N          62.7961   84.0092   10.9789 N.ar    1  UNL1       -0.2062
     22 C          62.0255   85.2961   10.9924 C.ar    1  UNL1        0.1395
     23 C          62.2511   86.2939   12.0893 C.ar    1  UNL1        0.1673
     24 C          63.2474   86.0049   13.1729 C.ar    1  UNL1        0.0553
     25 C          64.0180   84.7181   13.1594 C.ar    1  UNL1        0.1138
     26 CL         65.0142   84.4290   14.2428 Cl      1  UNL1       -0.0773
     27 O          64.5629   82.4334   12.0488 O.3     1  UNL1       -0.4597
     28 C          64.3049   81.3936   13.0987 C.3     1  UNL1        0.2070
     29 C          62.3004   79.7524   12.9026 C.3     1  UNL1        0.0038
     30 C          62.8965   81.0155   13.4498 C.3     1  UNL1        0.0438
     31 C          62.0840   81.9005   14.3479 C.3     1  UNL1        0.0038
@<TRIPOS>BOND
     1    29    30    1
     2    30    31    1
     3    30    28    1
     4    28    27    1
     5    27    20    1
     6    20    21   ar
     7    21    22   ar
     8    22    23   ar
     9    23    19    1
    10    19     1    1
    11     1     2   ar
    12     2     3   ar
    13     3     4   ar
    14     4     5   ar
    15     5     6   ar
    16     6     7   ar
    17     7    11    1
    18    11    12    2
    19    11    13   am
    20    13    15    1
    21    15    16    1
    22    15    17    2
    23    15    18    2
    24     7     8   ar
    25     8     9   ar
    26     9    10   ar
    27    23    24   ar
    28    24    25   ar
    29    25    26    1
    30    25    20   ar
    31    10     1   ar
    32    10     5   ar
    33    13    14    1
@<TRIPOS>MOLECULE
*****
 31 33 0 0 0
SMALL
GASTEIGER

@<TRIPOS>ATOM
      1 C          60.4993   89.2252    9.5182 C.ar    1  UNL1        0.2296
      2 N          59.7048   89.2556    8.2462 N.ar    1  UNL1       -0.2098
      3 C          59.5288   88.0019    7.4419 C.ar    1  UNL1        0.1021
      4 C          60.1472   86.7177    7.9094 C.ar    1  UNL1        0.0209
      5 C          60.9417   86.6874    9.1813 C.ar    1  UNL1        0.0062
      6 C          61.5602   85.4033    9.6488 C.ar    1  UNL1        0.0048
      7 C          62.3547   85.3729   10.9207 C.ar    1  UNL1        0.0548
      8 C          62.5308   86.6267   11.7252 C.ar    1  UNL1        0.0047
      9 C          61.9123   87.9108   11.2577 C.ar    1  UNL1        0.0048
     10 C          61.1178   87.9411    9.9857 C.ar    1  UNL1        0.0536
     11 C          62.9731   84.0888   11.3883 C.2     1  UNL1        0.2640
     12 O          63.9661   83.3747   10.5198 O.2     1  UNL1       -0.2686
     13 N          62.5986   83.5187   12.7242 N.am    1  UNL1       -0.1852
     14 H          61.9469   83.9874   13.2942 H       1  UNL1        0.1765
     15 S          63.2171   82.2346   13.1917 S.O2    1  UNL1        0.0581
     16 C          63.8355   80.9505   13.6593 C.3     1  UNL1        0.1997
     17 O          62.0971   81.4643   12.5574 O.2     1  UNL1       -0.1543
     18 O          64.3370   83.0050   13.8260 O.2     1  UNL1       -0.1543
     19 O          60.6754   90.4790   10.3226 O.3     1  UNL1       -0.4345
     20 C          64.6098   91.3267   12.3357 C.ar    1  UNL1        0.2359
     21 N          64.4175   91.6732   10.8890 N.ar    1  UNL1       -0.2062
     22 C          63.1060   91.3907   10.2180 C.ar    1  UNL1        0.1395
     23 C          61.9869   90.7616   10.9936 C.ar    1  UNL1        0.1673
     24 C          62.1791   90.4150   12.4404 C.ar    1  UNL1        0.0553
     25 C          63.4906   90.6976   13.1114 C.ar    1  UNL1        0.1138
     26 CL         63.6829   90.3510   14.5580 Cl      1  UNL1       -0.0773
     27 O          65.9212   91.6093   13.0067 O.3     1  UNL1       -0.4597
     28 C          66.1623   92.9423   13.6507 C.3     1  UNL1        0.2070
     29 C          67.9620   93.6129   15.4005 C.3     1  UNL1        0.0038
     30 C          66.6256   93.0141   15.0755 C.3     1  UNL1        0.0438
     31 C          65.7524   92.4871   16.1755 C.3     1  UNL1        0.0038
@<TRIPOS>BOND
     1    29    30    1
     2    30    31    1
     3    30    28    1
     4    28    27    1
     5    27    20    1
     6    20    21   ar
     7    21    22   ar
     8    22    23   ar
     9    23    19    1
    10    19     1    1
    11     1     2   ar
    12     2     3   ar
    13     3     4   ar
    14     4     5   ar
    15     5     6   ar
    16     6     7   ar
    17     7    11    1
    18    11    12    2
    19    11    13   am
    20    13    15    1
    21    15    16    1
    22    15    17    2
    23    15    18    2
    24     7     8   ar
    25     8     9   ar
    26     9    10   ar
    27    23    24   ar
    28    24    25   ar
    29    25    26    1
    30    25    20   ar
    31    10     1   ar
    32    10     5   ar
    33    13    14    1
@<TRIPOS>MOLECULE
*****
 31 33 0 0 0
SMALL
GASTEIGER

@<TRIPOS>ATOM
      1 C          63.4911   89.6109   13.8960 C.ar    1  UNL1        0.2296
      2 N          63.4699   90.4689   15.1261 N.ar    1  UNL1       -0.2098
      3 C          63.4372   89.8324   16.4839 C.ar    1  UNL1        0.1021
      4 C          63.4258   88.3379   16.6116 C.ar    1  UNL1        0.0209
      5 C          63.4470   87.4798   15.3815 C.ar    1  UNL1        0.0062
      6 C          63.4356   85.9853   15.5092 C.ar    1  UNL1        0.0048
      7 C          63.4567   85.1273   14.2790 C.ar    1  UNL1        0.0548
      8 C          63.4894   85.7638   12.9211 C.ar    1  UNL1        0.0047
      9 C          63.5008   87.2583   12.7934 C.ar    1  UNL1        0.0048
     10 C          63.4796   88.1163   14.0236 C.ar    1  UNL1        0.0536
     11 C          63.4453   83.6328   14.4067 C.2     1  UNL1        0.2640
     12 O          64.2690   82.9644   15.4673 O.2     1  UNL1       -0.2686
     13 N          62.6102   82.8068   13.4739 N.am    1  UNL1       -0.1852
     14 H          62.0696   83.2455   12.7778 H       1  UNL1        0.1765
     15 S          62.5988   81.3122   13.6016 S.O2    1  UNL1        0.0581
     16 C          62.5873   79.8177   13.7292 C.3     1  UNL1        0.1997
     17 O          61.3517   81.3927   14.4312 O.2     1  UNL1       -0.1543
     18 O          63.8458   81.2318   12.7719 O.2     1  UNL1       -0.1543
     19 O          63.5237   90.2473   12.5380 O.3     1  UNL1       -0.4345
     20 C          66.1784   93.8014   11.7823 C.ar    1  UNL1        0.2359
     21 N          65.3034   93.2720   10.6850 N.ar    1  UNL1       -0.2062
     22 C          64.4185   92.0873   10.9369 C.ar    1  UNL1        0.1395
     23 C          64.4086   91.4320   12.2861 C.ar    1  UNL1        0.1673
     24 C          65.2836   91.9615   13.3835 C.ar    1  UNL1        0.0553
     25 C          66.1685   93.1462   13.1316 C.ar    1  UNL1        0.1138
     26 CL         67.0434   93.6756   14.2289 Cl      1  UNL1       -0.0773
     27 O          67.0633   94.9861   11.5304 O.3     1  UNL1       -0.4597
     28 C          66.7289   95.9520   10.4326 C.3     1  UNL1        0.2070
     29 C          67.1901   96.8537    8.0400 C.3     1  UNL1        0.0038
     30 C          67.3166   95.7659    9.0651 C.3     1  UNL1        0.0438
     31 C          68.0309   94.4922    8.7227 C.3     1  UNL1        0.0038
@<TRIPOS>BOND
     1    29    30    1
     2    30    31    1
     3    30    28    1
     4    28    27    1
     5    27    20    1
     6    20    21   ar
     7    21    22   ar
     8    22    23   ar
     9    23    19    1
    10    19     1    1
    11     1     2   ar
    12     2     3   ar
    13     3     4   ar
    14     4     5   ar
    15     5     6   ar
    16     6     7   ar
    17     7    11    1
    18    11    12    2
    19    11    13   am
    20    13    15    1
    21    15    16    1
    22    15    17    2
    23    15    18    2
    24     7     8   ar
    25     8     9   ar
    26     9    10   ar
    27    23    24   ar
    28    24    25   ar
    29    25    26    1
    30    25    20   ar
    31    10     1   ar
    32    10     5   ar
    33    13    14    1
@<TRIPOS>MOLECULE
*****
 31 33 0 0 0
SMALL
GASTEIGER

@<TRIPOS>ATOM
      1 C          63.6992   89.4516   14.7608 C.ar    1  UNL1        0.2296
      2 N          63.5041   90.1678   16.0642 N.ar    1  UNL1       -0.2098
      3 C          63.2439   89.3862   17.3177 C.ar    1  UNL1        0.1021
      4 C          63.1787   87.8885   17.2678 C.ar    1  UNL1        0.0209
      5 C          63.3737   87.1723   15.9644 C.ar    1  UNL1        0.0062
      6 C          63.3085   85.6745   15.9145 C.ar    1  UNL1        0.0048
      7 C          63.5036   84.9584   14.6111 C.ar    1  UNL1        0.0548
      8 C          63.7639   85.7399   13.3574 C.ar    1  UNL1        0.0047
      9 C          63.8291   87.2377   13.4073 C.ar    1  UNL1        0.0048
     10 C          63.6340   87.9539   14.7109 C.ar    1  UNL1        0.0536
     11 C          63.4384   83.4606   14.5611 C.2     1  UNL1        0.2640
     12 O          64.2595   82.6420   15.5129 O.2     1  UNL1       -0.2686
     13 N          62.5522   82.7814   13.5596 N.am    1  UNL1       -0.1852
     14 H          62.0133   83.3187   12.9349 H       1  UNL1        0.1765
     15 S          62.4870   81.2837   13.5096 S.O2    1  UNL1        0.0581
     16 C          62.4218   79.7859   13.4597 C.3     1  UNL1        0.1997
     17 O          61.2648   81.3079   14.3789 O.2     1  UNL1       -0.1543
     18 O          63.7092   81.2594   12.6404 O.2     1  UNL1       -0.1543
     19 O          63.9594   90.2332   13.5072 O.3     1  UNL1       -0.4345
     20 C          60.9314   90.2206   10.1784 C.ar    1  UNL1        0.2359
     21 N          62.3583   90.5844    9.8929 N.ar    1  UNL1       -0.2062
     22 C          63.3676   90.5886   11.0025 C.ar    1  UNL1        0.1395
     23 C          62.9501   90.2290   12.3976 C.ar    1  UNL1        0.1673
     24 C          61.5231   89.8651   12.6831 C.ar    1  UNL1        0.0553
     25 C          60.5138   89.8609   11.5736 C.ar    1  UNL1        0.1138
     26 CL         59.0869   89.4971   11.8590 Cl      1  UNL1       -0.0773
     27 O          59.9220   90.2164    9.0688 O.3     1  UNL1       -0.4597
     28 C          59.9810   89.1603    8.0053 C.3     1  UNL1        0.2070
     29 C          61.2051   87.1606    9.1245 C.3     1  UNL1        0.0038
     30 C          60.0192   87.7107    8.3890 C.3     1  UNL1        0.0438
     31 C          58.8715   86.8113    8.0372 C.3     1  UNL1        0.0038
@<TRIPOS>BOND
     1    29    30    1
     2    30    31    1
     3    30    28    1
     4    28    27    1
     5    27    20    1
     6    20    21   ar
     7    21    22   ar
     8    22    23   ar
     9    23    19    1
    10    19     1    1
    11     1     2   ar
    12     2     3   ar
    13     3     4   ar
    14     4     5   ar
    15     5     6   ar
    16     6     7   ar
    17     7    11    1
    18    11    12    2
    19    11    13   am
    20    13    15    1
    21    15    16    1
    22    15    17    2
    23    15    18    2
    24     7     8   ar
    25     8     9   ar
    26     9    10   ar
    27    23    24   ar
    28    24    25   ar
    29    25    26    1
    30    25    20   ar
    31    10     1   ar
    32    10     5   ar
    33    13    14    1
@<TRIPOS>MOLECULE
*****
 31 33 0 0 0
SMALL
GASTEIGER

@<TRIPOS>ATOM
      1 C          62.8970   84.9630   12.6191 C.ar    1  UNL1        0.2296
      2 N          63.0880   83.8207   13.5723 N.ar    1  UNL1       -0.2098
      3 C          63.6886   84.0650   14.9249 C.ar    1  UNL1        0.1021
      4 C          64.0983   85.4516   15.3242 C.ar    1  UNL1        0.0209
      5 C          63.9074   86.5939   14.3710 C.ar    1  UNL1        0.0062
      6 C          64.3171   87.9805   14.7704 C.ar    1  UNL1        0.0048
      7 C          64.1262   89.1228   13.8172 C.ar    1  UNL1        0.0548
      8 C          63.5255   88.8785   12.4645 C.ar    1  UNL1        0.0047
      9 C          63.1158   87.4919   12.0651 C.ar    1  UNL1        0.0048
     10 C          63.3068   86.3496   13.0184 C.ar    1  UNL1        0.0536
     11 C          64.5359   90.5094   14.2165 C.2     1  UNL1        0.2640
     12 O          63.6352   91.3367   15.0851 O.2     1  UNL1       -0.2686
     13 N          65.8462   91.0687   13.7473 N.am    1  UNL1       -0.1852
     14 H          66.4373   90.5257   13.1773 H       1  UNL1        0.1765
     15 S          66.2559   92.4553   14.1467 S.O2    1  UNL1        0.0581
     16 C          66.6656   93.8419   14.5461 C.3     1  UNL1        0.1997
     17 O          66.9964   91.8969   15.3256 O.2     1  UNL1       -0.1543
     18 O          65.5154   93.0136   12.9678 O.2     1  UNL1       -0.1543
     19 O          62.2964   84.7187   11.2664 O.3     1  UNL1       -0.4345
     20 C          60.3606   88.1033    9.0197 C.ar    1  UNL1        0.2359
     21 N          61.1995   87.0991    8.2864 N.ar    1  UNL1       -0.2062
     22 C          61.8447   85.9709    9.0353 C.ar    1  UNL1        0.1395
     23 C          61.6511   85.8469   10.5175 C.ar    1  UNL1        0.1673
     24 C          60.8122   86.8511   11.2510 C.ar    1  UNL1        0.0553
     25 C          60.1670   87.9793   10.5021 C.ar    1  UNL1        0.1138
     26 CL         59.3281   88.9835   11.2354 Cl      1  UNL1       -0.0773
     27 O          59.7154   89.2315    8.2708 O.3     1  UNL1       -0.4597
     28 C          59.2773   89.0348    6.8498 C.3     1  UNL1        0.2070
     29 C          60.4926   90.7054    5.2743 C.3     1  UNL1        0.0038
     30 C          59.2304   90.2036    5.9108 C.3     1  UNL1        0.0438
     31 C          57.9214   90.8706    5.6083 C.3     1  UNL1        0.0038
@<TRIPOS>BOND
     1    29    30    1
     2    30    31    1
     3    30    28    1
     4    28    27    1
     5    27    20    1
     6    20    21   ar
     7    21    22   ar
     8    22    23   ar
     9    23    19    1
    10    19     1    1
    11     1     2   ar
    12     2     3   ar
    13     3     4   ar
    14     4     5   ar
    15     5     6   ar
    16     6     7   ar
    17     7    11    1
    18    11    12    2
    19    11    13   am
    20    13    15    1
    21    15    16    1
    22    15    17    2
    23    15    18    2
    24     7     8   ar
    25     8     9   ar
    26     9    10   ar
    27    23    24   ar
    28    24    25   ar
    29    25    26    1
    30    25    20   ar
    31    10     1   ar
    32    10     5   ar
    33    13    14    1
@<TRIPOS>MOLECULE
*****
 31 33 0 0 0
SMALL
GASTEIGER

@<TRIPOS>ATOM
      1 C          63.4673   85.5502   16.1868 C.ar    1  UNL1        0.2296
      2 N          62.8688   85.4600   17.5592 N.ar    1  UNL1       -0.2098
      3 C          62.5183   86.7114   18.3083 C.ar    1  UNL1        0.1021
      4 C          62.7664   88.0530   17.6849 C.ar    1  UNL1        0.0209
      5 C          63.3650   88.1432   16.3125 C.ar    1  UNL1        0.0062
      6 C          63.6131   89.4849   15.6892 C.ar    1  UNL1        0.0048
      7 C          64.2117   89.5751   14.3168 C.ar    1  UNL1        0.0548
      8 C          64.5622   88.3237   13.5677 C.ar    1  UNL1        0.0047
      9 C          64.3140   86.9821   14.1910 C.ar    1  UNL1        0.0048
     10 C          63.7154   86.8919   15.5634 C.ar    1  UNL1        0.0536
     11 C          64.4598   90.9167   13.6935 C.2     1  UNL1        0.2640
     12 O          63.3433   91.6396   13.0000 O.2     1  UNL1       -0.2686
     13 N          65.8244   91.5355   13.7637 N.am    1  UNL1       -0.1852
     14 H          66.5572   91.0610   14.2189 H       1  UNL1        0.1765
     15 S          66.0725   92.8771   13.1404 S.O2    1  UNL1        0.0581
     16 C          66.3207   94.2187   12.5171 C.3     1  UNL1        0.1997
     17 O          66.1894   92.2293   11.7926 O.2     1  UNL1       -0.1543
     18 O          65.9557   93.5249   14.4882 O.2     1  UNL1       -0.1543
     19 O          63.8178   84.2988   15.4376 O.3     1  UNL1       -0.4345
     20 C          63.3371   84.1442   10.9660 C.ar    1  UNL1        0.2359
     21 N          64.4316   83.3627   11.6301 N.ar    1  UNL1       -0.2062
     22 C          64.5919   83.4142   13.1206 C.ar    1  UNL1        0.1395
     23 C          63.6575   84.2473   13.9470 C.ar    1  UNL1        0.1673
     24 C          62.5629   85.0289   13.2829 C.ar    1  UNL1        0.0553
     25 C          62.4027   84.9774   11.7924 C.ar    1  UNL1        0.1138
     26 CL         61.3081   85.7589   11.1283 Cl      1  UNL1       -0.0773
     27 O          63.1768   84.0927    9.4755 O.3     1  UNL1       -0.4597
     28 C          62.9145   85.3528    8.7053 C.3     1  UNL1        0.2070
     29 C          60.6425   86.1004    7.6907 C.3     1  UNL1        0.0038
     30 C          61.9343   85.3476    7.5699 C.3     1  UNL1        0.0438
     31 C          62.2460   84.5896    6.3136 C.3     1  UNL1        0.0038
@<TRIPOS>BOND
     1    29    30    1
     2    30    31    1
     3    30    28    1
     4    28    27    1
     5    27    20    1
     6    20    21   ar
     7    21    22   ar
     8    22    23   ar
     9    23    19    1
    10    19     1    1
    11     1     2   ar
    12     2     3   ar
    13     3     4   ar
    14     4     5   ar
    15     5     6   ar
    16     6     7   ar
    17     7    11    1
    18    11    12    2
    19    11    13   am
    20    13    15    1
    21    15    16    1
    22    15    17    2
    23    15    18    2
    24     7     8   ar
    25     8     9   ar
    26     9    10   ar
    27    23    24   ar
    28    24    25   ar
    29    25    26    1
    30    25    20   ar
    31    10     1   ar
    32    10     5   ar
    33    13    14    1
@<TRIPOS>MOLECULE
*****
 31 33 0 0 0
SMALL
GASTEIGER

@<TRIPOS>ATOM
      1 C          61.2052   87.9028   10.0041 C.ar    1  UNL1        0.2296
      2 N          60.0257   88.5350    9.3265 N.ar    1  UNL1       -0.2098
      3 C          59.6218   89.9364    9.6770 C.ar    1  UNL1        0.1021
      4 C          60.3973   90.7056   10.7050 C.ar    1  UNL1        0.0209
      5 C          61.5767   90.0734   11.3826 C.ar    1  UNL1        0.0062
      6 C          62.3522   90.8426   12.4107 C.ar    1  UNL1        0.0048
      7 C          63.5317   90.2104   13.0883 C.ar    1  UNL1        0.0548
      8 C          63.9357   88.8090   12.7378 C.ar    1  UNL1        0.0047
      9 C          63.1602   88.0397   11.7098 C.ar    1  UNL1        0.0048
     10 C          61.9807   88.6720   11.0322 C.ar    1  UNL1        0.0536
     11 C          64.3072   90.9796   14.1164 C.2     1  UNL1        0.2640
     12 O          63.7160   91.2250   15.4730 O.2     1  UNL1       -0.2686
     13 N          65.6737   91.5035   13.7879 N.am    1  UNL1       -0.1852
     14 H          66.0617   91.3425   12.8975 H       1  UNL1        0.1765
     15 S          66.4492   92.2727   14.8159 S.O2    1  UNL1        0.0581
     16 C          67.2247   93.0419   15.8440 C.3     1  UNL1        0.1997
     17 O          67.1652   91.0167   15.2156 O.2     1  UNL1       -0.1543
     18 O          65.7333   93.5287   14.4162 O.2     1  UNL1       -0.1543
     19 O          61.6092   86.5013    9.6536 O.3     1  UNL1       -0.4345
     20 C          63.2483   83.7707   12.8328 C.ar    1  UNL1        0.2359
     21 N          62.2452   84.8257   13.1945 N.ar    1  UNL1       -0.2062
     22 C          61.6989   85.7359   12.1347 C.ar    1  UNL1        0.1395
     23 C          62.1556   85.5911   10.7133 C.ar    1  UNL1        0.1673
     24 C          63.1586   84.5361   10.3516 C.ar    1  UNL1        0.0553
     25 C          63.7050   83.6258   11.4113 C.ar    1  UNL1        0.1138
     26 CL         64.7080   82.5708   11.0496 Cl      1  UNL1       -0.0773
     27 O          63.7946   82.8604   13.8925 O.3     1  UNL1       -0.4597
     28 C          62.8899   81.8805   14.5788 C.3     1  UNL1        0.2070
     29 C          62.6436   80.1772   12.6325 C.3     1  UNL1        0.0038
     30 C          62.0385   80.9498   13.7669 C.3     1  UNL1        0.0438
     31 C          60.5822   80.7918   14.0895 C.3     1  UNL1        0.0038
@<TRIPOS>BOND
     1    29    30    1
     2    30    31    1
     3    30    28    1
     4    28    27    1
     5    27    20    1
     6    20    21   ar
     7    21    22   ar
     8    22    23   ar
     9    23    19    1
    10    19     1    1
    11     1     2   ar
    12     2     3   ar
    13     3     4   ar
    14     4     5   ar
    15     5     6   ar
    16     6     7   ar
    17     7    11    1
    18    11    12    2
    19    11    13   am
    20    13    15    1
    21    15    16    1
    22    15    17    2
    23    15    18    2
    24     7     8   ar
    25     8     9   ar
    26     9    10   ar
    27    23    24   ar
    28    24    25   ar
    29    25    26    1
    30    25    20   ar
    31    10     1   ar
    32    10     5   ar
    33    13    14    1
