@<TRIPOS>MOLECULE
*****
 32 36 0 0 0
SMALL
GASTEIGER

@<TRIPOS>ATOM
      1 C          62.7733   87.2572   11.9680 C.3     1  UNL1        0.1272
      2 C          63.1713   88.5244   12.6650 C.2     1  UNL1        0.0261
      3 C          63.0272   90.0173   12.6446 C.2     1  UNL1        0.0789
      4 N          63.8153   90.5747   13.7927 N.2     1  UNL1       -0.1568
      5 N          64.4465   89.4263   14.5227 N.2     1  UNL1       -0.1631
      6 C          64.0485   88.1591   13.8257 C.3     1  UNL1        0.2225
      7 C          64.1925   86.6662   13.8461 C.2     1  UNL1        0.2581
      8 O          64.9855   85.8704   14.8401 O.2     1  UNL1       -0.2720
      9 N          63.4044   86.1087   12.6980 N.am    1  UNL1       -0.2508
     10 C          60.4796   87.6412   10.8100 C.ar    1  UNL1        0.1366
     11 C          59.6040   87.5402    9.5961 C.ar    1  UNL1        0.0366
     12 C          60.1468   86.9539    8.3266 C.ar    1  UNL1        0.0031
     13 C          61.5651   86.4688    8.2708 C.ar    1  UNL1       -0.0001
     14 C          62.4406   86.5698    9.4847 C.ar    1  UNL1        0.0007
     15 C          61.8978   87.1561   10.7542 C.ar    1  UNL1        0.0340
     16 C          59.0747   89.4541   12.0307 C.3     1  UNL1        0.2525
     17 O          59.9368   88.2275   12.0795 O.3     1  UNL1       -0.4717
     18 C          63.2709   84.6577   12.3423 C.ar    1  UNL1        0.0544
     19 C          62.4852   83.7373   13.2287 C.ar    1  UNL1        0.0150
     20 C          62.3516   82.2863   12.8730 C.ar    1  UNL1        0.0029
     21 C          63.0039   81.7555   11.6308 C.ar    1  UNL1        0.0210
     22 C          63.7896   82.6757   10.7444 C.ar    1  UNL1        0.0029
     23 C          63.9231   84.1269   11.1002 C.ar    1  UNL1        0.0150
     24 C          62.8703   80.3044   11.2751 C.ar    1  UNL1        0.1231
     25 C          62.9586   79.7232    9.8951 C.ar    1  UNL1        0.0658
     26 C          62.7679   78.2393   10.0041 C.ar    1  UNL1        0.2138
     27 O          62.5618   77.9035   11.4514 O.2     1  UNL1       -0.3502
     28 N          62.6251   79.1798   12.2370 N.ar    1  UNL1       -0.0768
     29 C          62.2343   90.8131   11.6506 C.3     1  UNL1        0.0788
     30 C          62.6646   90.8618   10.2146 C.3     1  UNL1        0.1435
     31 O          63.4579   92.0300    9.7085 O.3     1  UNL1       -0.3816
     32 H          62.9113   92.8306    9.7414 H       1  UNL1        0.2105
@<TRIPOS>BOND
     1    16    17    1
     2    17    10    1
     3    10    11   ar
     4    11    12   ar
     5    12    13   ar
     6    13    14   ar
     7    14    15   ar
     8    15     1    1
     9     1     2    1
    10     2     3    2
    11     3    29    1
    12    29    30    1
    13    30    31    1
    14     3     4    1
    15     4     5    2
    16     5     6    1
    17     6     7    1
    18     7     8    2
    19     7     9   am
    20     9    18    1
    21    18    19   ar
    22    19    20   ar
    23    20    21   ar
    24    21    24    1
    25    24    25   ar
    26    25    26   ar
    27    26    27   ar
    28    27    28   ar
    29    21    22   ar
    30    22    23   ar
    31    15    10   ar
    32     9     1    1
    33    23    18   ar
    34     6     2    1
    35    28    24   ar
    36    31    32    1
@<TRIPOS>MOLECULE
*****
 32 36 0 0 0
SMALL
GASTEIGER

@<TRIPOS>ATOM
      1 C          64.7849   91.1544   13.4183 C.3     1  UNL1        0.1272
      2 C          65.7326   92.2738   13.7326 C.2     1  UNL1        0.0261
      3 C          66.6060   92.8602   14.8018 C.2     1  UNL1        0.0789
      4 N          67.2660   94.0849   14.2412 N.2     1  UNL1       -0.1568
      5 N          66.8006   94.2554   12.8254 N.2     1  UNL1       -0.1631
      6 C          65.8529   93.1360   12.5111 C.3     1  UNL1        0.2225
      7 C          64.9795   92.5496   11.4418 C.2     1  UNL1        0.2581
      8 O          64.7981   93.0926   10.0554 O.2     1  UNL1       -0.2720
      9 N          64.3194   91.3248   12.0025 N.am    1  UNL1       -0.2508
     10 C          63.6683   90.3897   15.6360 C.ar    1  UNL1        0.1366
     11 C          63.2580   89.2924   16.5730 C.ar    1  UNL1        0.0366
     12 C          63.5539   87.8627   16.2290 C.ar    1  UNL1        0.0031
     13 C          64.2602   87.5302   14.9481 C.ar    1  UNL1       -0.0001
     14 C          64.6705   88.6274   14.0112 C.ar    1  UNL1        0.0007
     15 C          64.3746   90.0572   14.3551 C.ar    1  UNL1        0.0340
     16 C          63.9853   92.4395   17.2006 C.3     1  UNL1        0.2525
     17 O          63.3724   91.8194   15.9800 O.3     1  UNL1       -0.4717
     18 C          63.3620   90.4281   11.2751 C.ar    1  UNL1        0.0544
     19 C          62.6323   90.9334   10.0659 C.ar    1  UNL1        0.0150
     20 C          61.6749   90.0366    9.3385 C.ar    1  UNL1        0.0029
     21 C          61.4472   88.6344    9.8204 C.ar    1  UNL1        0.0210
     22 C          62.1768   88.1291   11.0296 C.ar    1  UNL1        0.0029
     23 C          63.1342   89.0259   11.7569 C.ar    1  UNL1        0.0150
     24 C          60.4897   87.7376    9.0930 C.ar    1  UNL1        0.1231
     25 C          60.8434   86.4720    8.3696 C.ar    1  UNL1        0.0658
     26 C          59.5829   85.9012    7.7908 C.ar    1  UNL1        0.2138
     27 O          58.4501   86.8140    8.1564 O.2     1  UNL1       -0.3502
     28 N          59.0106   87.9490    8.9612 N.ar    1  UNL1       -0.0768
     29 C          66.7874   92.3172   16.1883 C.3     1  UNL1        0.0788
     30 C          68.1665   92.0538   16.7161 C.3     1  UNL1        0.1435
     31 O          69.3555   92.1985   15.8131 O.3     1  UNL1       -0.3816
     32 H          69.3166   91.5243   15.1168 H       1  UNL1        0.2105
@<TRIPOS>BOND
     1    16    17    1
     2    17    10    1
     3    10    11   ar
     4    11    12   ar
     5    12    13   ar
     6    13    14   ar
     7    14    15   ar
     8    15     1    1
     9     1     2    1
    10     2     3    2
    11     3    29    1
    12    29    30    1
    13    30    31    1
    14     3     4    1
    15     4     5    2
    16     5     6    1
    17     6     7    1
    18     7     8    2
    19     7     9   am
    20     9    18    1
    21    18    19   ar
    22    19    20   ar
    23    20    21   ar
    24    21    24    1
    25    24    25   ar
    26    25    26   ar
    27    26    27   ar
    28    27    28   ar
    29    21    22   ar
    30    22    23   ar
    31    15    10   ar
    32     9     1    1
    33    23    18   ar
    34     6     2    1
    35    28    24   ar
    36    31    32    1
@<TRIPOS>MOLECULE
*****
 32 36 0 0 0
SMALL
GASTEIGER

@<TRIPOS>ATOM
      1 C          62.9174   87.9489   12.2025 C.3     1  UNL1        0.1272
      2 C          63.4681   89.2941   12.5731 C.2     1  UNL1        0.0261
      3 C          63.5209   90.7373   12.1679 C.2     1  UNL1        0.0789
      4 N          64.3590   91.4705   13.1728 N.2     1  UNL1       -0.1568
      5 N          64.8242   90.4804   14.1992 N.2     1  UNL1       -0.1631
      6 C          64.2735   89.1353   13.8286 C.3     1  UNL1        0.2225
      7 C          64.2206   87.6921   14.2339 C.2     1  UNL1        0.2581
      8 O          64.8886   87.0881   15.4335 O.2     1  UNL1       -0.2720
      9 N          63.3825   86.9588   13.2289 N.am    1  UNL1       -0.2508
     10 C          60.6542   88.1836   10.9485 C.ar    1  UNL1        0.1366
     11 C          59.7901   87.8815    9.7601 C.ar    1  UNL1        0.0366
     12 C          60.3251   87.0428    8.6375 C.ar    1  UNL1        0.0031
     13 C          61.7243   86.5060    8.7032 C.ar    1  UNL1       -0.0001
     14 C          62.5884   86.8081    9.8916 C.ar    1  UNL1        0.0007
     15 C          62.0533   87.6469   11.0142 C.ar    1  UNL1        0.0340
     16 C          59.3383   90.2675   11.7707 C.3     1  UNL1        0.2525
     17 O          60.1191   89.0223   12.0710 O.3     1  UNL1       -0.4717
     18 C          63.0652   85.4929   13.2471 C.ar    1  UNL1        0.0544
     19 C          63.1471   84.6920   11.9814 C.ar    1  UNL1        0.0150
     20 C          62.8298   83.2261   11.9996 C.ar    1  UNL1        0.0029
     21 C          62.4306   82.5610   13.2835 C.ar    1  UNL1        0.0210
     22 C          62.3487   83.3618   14.5492 C.ar    1  UNL1        0.0029
     23 C          62.6660   84.8278   14.5309 C.ar    1  UNL1        0.0150
     24 C          62.1133   81.0950   13.3017 C.ar    1  UNL1        0.1231
     25 C          61.0477   80.4338   14.1247 C.ar    1  UNL1        0.0658
     26 C          61.0817   78.9630   13.8318 C.ar    1  UNL1        0.2138
     27 O          62.1683   78.7154   12.8277 O.2     1  UNL1       -0.3502
     28 N          62.8059   80.0330   12.5002 N.ar    1  UNL1       -0.0768
     29 C          62.8530   91.3413   10.9683 C.3     1  UNL1        0.0788
     30 C          63.6792   91.9836    9.8938 C.3     1  UNL1        0.1435
     31 O          64.8151   92.8912   10.2628 O.3     1  UNL1       -0.3816
     32 H          64.4663   93.6858   10.6962 H       1  UNL1        0.2105
@<TRIPOS>BOND
     1    16    17    1
     2    17    10    1
     3    10    11   ar
     4    11    12   ar
     5    12    13   ar
     6    13    14   ar
     7    14    15   ar
     8    15     1    1
     9     1     2    1
    10     2     3    2
    11     3    29    1
    12    29    30    1
    13    30    31    1
    14     3     4    1
    15     4     5    2
    16     5     6    1
    17     6     7    1
    18     7     8    2
    19     7     9   am
    20     9    18    1
    21    18    19   ar
    22    19    20   ar
    23    20    21   ar
    24    21    24    1
    25    24    25   ar
    26    25    26   ar
    27    26    27   ar
    28    27    28   ar
    29    21    22   ar
    30    22    23   ar
    31    15    10   ar
    32     9     1    1
    33    23    18   ar
    34     6     2    1
    35    28    24   ar
    36    31    32    1
@<TRIPOS>MOLECULE
*****
 32 36 0 0 0
SMALL
GASTEIGER

@<TRIPOS>ATOM
      1 C          62.9554   84.9076   12.8082 C.3     1  UNL1        0.1272
      2 C          62.6660   83.6209   13.5229 C.2     1  UNL1        0.0261
      3 C          62.2366   82.1965   13.3316 C.2     1  UNL1        0.0789
      4 N          62.1977   81.5391   14.6793 N.2     1  UNL1       -0.1568
      5 N          62.6030   82.5573   15.7036 N.2     1  UNL1       -0.1631
      6 C          62.8924   83.8439   14.9889 C.3     1  UNL1        0.2225
      7 C          63.3218   85.2684   15.1802 C.2     1  UNL1        0.2581
      8 O          63.6539   85.9209   16.4894 O.2     1  UNL1       -0.2720
      9 N          63.3607   85.9258   13.8324 N.am    1  UNL1       -0.2508
     10 C          61.8094   86.0592   10.7809 C.ar    1  UNL1        0.1366
     11 C          61.7107   86.2877    9.3016 C.ar    1  UNL1        0.0366
     12 C          62.6596   85.5928    8.3705 C.ar    1  UNL1        0.0031
     13 C          63.7070   84.6696    8.9186 C.ar    1  UNL1       -0.0001
     14 C          63.8057   84.4411   10.3979 C.ar    1  UNL1        0.0007
     15 C          62.8568   85.1360   11.3290 C.ar    1  UNL1        0.0340
     16 C          60.0603   87.9274   11.2292 C.3     1  UNL1        0.2525
     17 O          60.8605   86.7541   11.7120 O.3     1  UNL1       -0.4717
     18 C          63.7386   87.3510   13.5573 C.ar    1  UNL1        0.0544
     19 C          64.5604   88.1148   14.5531 C.ar    1  UNL1        0.0150
     20 C          64.9382   89.5400   14.2779 C.ar    1  UNL1        0.0029
     21 C          64.4944   90.2017   13.0069 C.ar    1  UNL1        0.0210
     22 C          63.6726   89.4380   12.0112 C.ar    1  UNL1        0.0029
     23 C          63.2948   88.0127   12.2864 C.ar    1  UNL1        0.0150
     24 C          64.8723   91.6270   12.7318 C.ar    1  UNL1        0.1231
     25 C          64.9148   92.2833   11.3836 C.ar    1  UNL1        0.0658
     26 C          65.3428   93.7081   11.5751 C.ar    1  UNL1        0.2138
     27 O          65.5648   93.9324   13.0416 O.2     1  UNL1       -0.3502
     28 N          65.2739   92.6461   13.7564 N.ar    1  UNL1       -0.0768
     29 C          61.9045   81.5440   12.0224 C.3     1  UNL1        0.0788
     30 C          63.0050   81.0744   11.1179 C.3     1  UNL1        0.1435
     31 O          62.7342   80.0083   10.0980 O.3     1  UNL1       -0.3816
     32 H          62.5277   79.1746   10.5488 H       1  UNL1        0.2105
@<TRIPOS>BOND
     1    16    17    1
     2    17    10    1
     3    10    11   ar
     4    11    12   ar
     5    12    13   ar
     6    13    14   ar
     7    14    15   ar
     8    15     1    1
     9     1     2    1
    10     2     3    2
    11     3    29    1
    12    29    30    1
    13    30    31    1
    14     3     4    1
    15     4     5    2
    16     5     6    1
    17     6     7    1
    18     7     8    2
    19     7     9   am
    20     9    18    1
    21    18    19   ar
    22    19    20   ar
    23    20    21   ar
    24    21    24    1
    25    24    25   ar
    26    25    26   ar
    27    26    27   ar
    28    27    28   ar
    29    21    22   ar
    30    22    23   ar
    31    15    10   ar
    32     9     1    1
    33    23    18   ar
    34     6     2    1
    35    28    24   ar
    36    31    32    1
@<TRIPOS>MOLECULE
*****
 32 36 0 0 0
SMALL
GASTEIGER

@<TRIPOS>ATOM
      1 C          62.9420   85.2259   12.9936 C.3     1  UNL1        0.1272
      2 C          62.7136   83.9611   13.7670 C.2     1  UNL1        0.0261
      3 C          62.2486   82.5392   13.6578 C.2     1  UNL1        0.0789
      4 N          62.3441   81.9146   15.0183 N.2     1  UNL1       -0.1568
      5 N          62.8680   82.9505   15.9682 N.2     1  UNL1       -0.1631
      6 C          63.0964   84.2153   15.1948 C.3     1  UNL1        0.2225
      7 C          63.5614   85.6373   15.3040 C.2     1  UNL1        0.2581
      8 O          64.0381   86.3156   16.5541 O.2     1  UNL1       -0.2720
      9 N          63.4659   86.2619   13.9435 N.am    1  UNL1       -0.2508
     10 C          63.5313   84.6947   10.5197 C.ar    1  UNL1        0.1366
     11 C          63.2799   84.8894    9.0537 C.ar    1  UNL1        0.0366
     12 C          62.1878   85.8101    8.5958 C.ar    1  UNL1        0.0031
     13 C          61.3471   86.5360    9.6038 C.ar    1  UNL1       -0.0001
     14 C          61.5984   86.3413   11.0698 C.ar    1  UNL1        0.0007
     15 C          62.6906   85.4206   11.5277 C.ar    1  UNL1        0.0340
     16 C          64.7140   82.3834   10.4224 C.3     1  UNL1        0.2525
     17 O          64.6234   83.7740   10.9775 O.3     1  UNL1       -0.4717
     18 C          63.8304   87.6743   13.5943 C.ar    1  UNL1        0.0544
     19 C          64.7093   88.4711   14.5125 C.ar    1  UNL1        0.0150
     20 C          65.0737   89.8835   14.1633 C.ar    1  UNL1        0.0029
     21 C          64.5594   90.4994   12.8958 C.ar    1  UNL1        0.0210
     22 C          63.6806   89.7027   11.9776 C.ar    1  UNL1        0.0029
     23 C          63.3162   88.2902   12.3269 C.ar    1  UNL1        0.0150
     24 C          64.9240   91.9119   12.5466 C.ar    1  UNL1        0.1231
     25 C          64.8348   92.5345   11.1849 C.ar    1  UNL1        0.0658
     26 C          65.2973   93.9572   11.2945 C.ar    1  UNL1        0.2138
     27 O          65.6724   94.2138   12.7240 O.2     1  UNL1       -0.3502
     28 N          65.4416   92.9497   13.4979 N.ar    1  UNL1       -0.0768
     29 C          61.7719   81.8609   12.4077 C.3     1  UNL1        0.0788
     30 C          62.3432   80.5319   12.0110 C.3     1  UNL1        0.1435
     31 O          62.2917   79.3777   12.9677 O.3     1  UNL1       -0.3816
     32 H          62.8492   79.5707   13.7376 H       1  UNL1        0.2105
@<TRIPOS>BOND
     1    16    17    1
     2    17    10    1
     3    10    11   ar
     4    11    12   ar
     5    12    13   ar
     6    13    14   ar
     7    14    15   ar
     8    15     1    1
     9     1     2    1
    10     2     3    2
    11     3    29    1
    12    29    30    1
    13    30    31    1
    14     3     4    1
    15     4     5    2
    16     5     6    1
    17     6     7    1
    18     7     8    2
    19     7     9   am
    20     9    18    1
    21    18    19   ar
    22    19    20   ar
    23    20    21   ar
    24    21    24    1
    25    24    25   ar
    26    25    26   ar
    27    26    27   ar
    28    27    28   ar
    29    21    22   ar
    30    22    23   ar
    31    15    10   ar
    32     9     1    1
    33    23    18   ar
    34     6     2    1
    35    28    24   ar
    36    31    32    1
@<TRIPOS>MOLECULE
*****
 32 36 0 0 0
SMALL
GASTEIGER

@<TRIPOS>ATOM
      1 C          45.0864   78.4710   18.7487 C.3     1  UNL1        0.1272
      2 C          45.2063   79.2493   20.0254 C.2     1  UNL1        0.0261
      3 C          45.2536   80.6327   20.6033 C.2     1  UNL1        0.0789
      4 N          45.4004   80.5087   22.0910 N.2     1  UNL1       -0.1568
      5 N          45.4439   79.0487   22.4324 N.2     1  UNL1       -0.1631
      6 C          45.3239   78.2704   21.1558 C.3     1  UNL1        0.2225
      7 C          45.2767   76.8870   20.5778 C.2     1  UNL1        0.2581
      8 O          45.3613   75.6048   21.3516 O.2     1  UNL1       -0.2720
      9 N          45.1298   77.0109   19.0901 N.am    1  UNL1       -0.2508
     10 C          45.9829   80.0027   16.8515 C.ar    1  UNL1        0.1366
     11 C          45.8440   80.5826   15.4750 C.ar    1  UNL1        0.0366
     12 C          44.6694   80.2104   14.6195 C.ar    1  UNL1        0.0031
     13 C          43.6338   79.2584   15.1403 C.ar    1  UNL1       -0.0001
     14 C          43.7728   78.6786   16.5168 C.ar    1  UNL1        0.0007
     15 C          44.9474   79.0508   17.3723 C.ar    1  UNL1        0.0340
     16 C          48.0619   79.3061   18.2454 C.3     1  UNL1        0.2525
     17 O          47.1575   80.3749   17.7070 O.3     1  UNL1       -0.4717
     18 C          45.0419   75.8745   18.1151 C.ar    1  UNL1        0.0544
     19 C          43.7437   75.1472   17.9260 C.ar    1  UNL1        0.0150
     20 C          43.6557   74.0108   16.9511 C.ar    1  UNL1        0.0029
     21 C          44.8661   73.6015   16.1651 C.ar    1  UNL1        0.0210
     22 C          46.1643   74.3288   16.3541 C.ar    1  UNL1        0.0029
     23 C          46.2522   75.4653   17.3292 C.ar    1  UNL1        0.0150
     24 C          44.7781   72.4650   15.1900 C.ar    1  UNL1        0.1231
     25 C          45.8181   71.4057   14.9746 C.ar    1  UNL1        0.0658
     26 C          45.3175   70.4743   13.9107 C.ar    1  UNL1        0.2138
     27 O          43.9682   70.9580   13.4686 O.2     1  UNL1       -0.3502
     28 N          43.6348   72.1884   14.2593 N.ar    1  UNL1       -0.0768
     29 C          45.1690   81.9149   19.8295 C.3     1  UNL1        0.0788
     30 C          43.9287   82.2409   19.0515 C.3     1  UNL1        0.1435
     31 O          44.0390   82.8152   17.6702 O.3     1  UNL1       -0.3816
     32 H          44.4374   83.6983   17.7181 H       1  UNL1        0.2105
@<TRIPOS>BOND
     1    16    17    1
     2    17    10    1
     3    10    11   ar
     4    11    12   ar
     5    12    13   ar
     6    13    14   ar
     7    14    15   ar
     8    15     1    1
     9     1     2    1
    10     2     3    2
    11     3    29    1
    12    29    30    1
    13    30    31    1
    14     3     4    1
    15     4     5    2
    16     5     6    1
    17     6     7    1
    18     7     8    2
    19     7     9   am
    20     9    18    1
    21    18    19   ar
    22    19    20   ar
    23    20    21   ar
    24    21    24    1
    25    24    25   ar
    26    25    26   ar
    27    26    27   ar
    28    27    28   ar
    29    21    22   ar
    30    22    23   ar
    31    15    10   ar
    32     9     1    1
    33    23    18   ar
    34     6     2    1
    35    28    24   ar
    36    31    32    1
@<TRIPOS>MOLECULE
*****
 32 36 0 0 0
SMALL
GASTEIGER

@<TRIPOS>ATOM
      1 C          55.6712   95.4103   -4.0270 C.3     1  UNL1        0.1272
      2 C          54.3483   95.9624   -4.4686 C.2     1  UNL1        0.0261
      3 C          53.5547   96.4025   -5.6629 C.2     1  UNL1        0.0789
      4 N          52.2077   96.8556   -5.1831 N.2     1  UNL1       -0.1568
      5 N          52.1688   96.6954   -3.6921 N.2     1  UNL1       -0.1631
      6 C          53.4917   96.1434   -3.2506 C.3     1  UNL1        0.2225
      7 C          54.2853   95.7032   -2.0562 C.2     1  UNL1        0.2581
      8 O          53.8145   95.7141   -0.6320 O.2     1  UNL1       -0.2720
      9 N          55.6324   95.2501   -2.5361 N.am    1  UNL1       -0.2508
     10 C          56.9870   93.6849   -5.4559 C.ar    1  UNL1        0.1366
     11 C          58.1456   93.3515   -6.3485 C.ar    1  UNL1        0.0366
     12 C          59.1468   94.4101   -6.7049 C.ar    1  UNL1        0.0031
     13 C          58.9895   95.8021   -6.1686 C.ar    1  UNL1       -0.0001
     14 C          57.8309   96.1355   -5.2760 C.ar    1  UNL1        0.0007
     15 C          56.8297   95.0769   -4.9196 C.ar    1  UNL1        0.0340
     16 C          56.4191   91.4119   -4.3328 C.3     1  UNL1        0.2525
     17 O          55.9859   92.6263   -5.0995 O.3     1  UNL1       -0.4717
     18 C          56.7451   94.7284   -1.6761 C.ar    1  UNL1        0.0544
     19 C          56.8264   93.2640   -1.3614 C.ar    1  UNL1        0.0150
     20 C          57.9391   92.7424   -0.5014 C.ar    1  UNL1        0.0029
     21 C          58.9706   93.6851    0.0440 C.ar    1  UNL1        0.0210
     22 C          58.8893   95.1495   -0.2706 C.ar    1  UNL1        0.0029
     23 C          57.7765   95.6711   -1.1307 C.ar    1  UNL1        0.0150
     24 C          60.0833   93.1634    0.9041 C.ar    1  UNL1        0.1231
     25 C          60.1361   93.2111    2.4024 C.ar    1  UNL1        0.0658
     26 C          61.4240   92.5796    2.8412 C.ar    1  UNL1        0.2138
     27 O          62.1671   92.1416    1.6140 O.2     1  UNL1       -0.3502
     28 N          61.3385   92.5024    0.4168 N.ar    1  UNL1       -0.0768
     29 C          54.0255   96.3916   -7.0871 C.3     1  UNL1        0.0788
     30 C          54.9583   95.3166   -7.5604 C.3     1  UNL1        0.1435
     31 O          54.5280   93.8801   -7.5229 O.3     1  UNL1       -0.3816
     32 H          54.4131   93.6010   -6.6010 H       1  UNL1        0.2105
@<TRIPOS>BOND
     1    16    17    1
     2    17    10    1
     3    10    11   ar
     4    11    12   ar
     5    12    13   ar
     6    13    14   ar
     7    14    15   ar
     8    15     1    1
     9     1     2    1
    10     2     3    2
    11     3    29    1
    12    29    30    1
    13    30    31    1
    14     3     4    1
    15     4     5    2
    16     5     6    1
    17     6     7    1
    18     7     8    2
    19     7     9   am
    20     9    18    1
    21    18    19   ar
    22    19    20   ar
    23    20    21   ar
    24    21    24    1
    25    24    25   ar
    26    25    26   ar
    27    26    27   ar
    28    27    28   ar
    29    21    22   ar
    30    22    23   ar
    31    15    10   ar
    32     9     1    1
    33    23    18   ar
    34     6     2    1
    35    28    24   ar
    36    31    32    1
