@<TRIPOS>MOLECULE
*****
 26 28 0 0 0
SMALL
GASTEIGER

@<TRIPOS>ATOM
      1 O          62.5746   82.4111   10.5606 O.2     1  UNL1       -0.2701
      2 C          62.6864   83.7258   11.2742 C.2     1  UNL1        0.2470
      3 N          62.4297   84.7046   10.1670 N.am    1  UNL1       -0.2972
      4 CA         62.2639   86.0607    9.5478 C.3     1  UNL1        0.1143
      5 C          62.2177   87.5598    9.5239 C.3     1  UNL1        0.0727
      6 C          62.2990   88.9426   10.0995 C.ar    1  UNL1        0.0799
      7 C          62.6059   88.8185   11.5625 C.ar    1  UNL1        0.0923
      8 N          62.6872   90.2013   12.1380 N.ar    1  UNL1       -0.3039
      9 C          62.4305   91.1801   11.0307 C.ar    1  UNL1        0.1785
     10 N          62.1906   90.4022    9.7708 N.ar    1  UNL1       -0.2282
     11 C          63.0752   90.3402   14.0272 C.3     1  UNL1        0.1339
     12 C          63.3614   89.6191   15.3109 C.2     1  UNL1       -0.0026
     13 C          63.5774   88.4255   16.1934 C.2     1  UNL1        0.0180
     14 C          63.6858   86.9660   16.5221 C.3     1  UNL1        0.2315
     15 O          63.6679   85.4928   16.2401 O.3     1  UNL1       -0.4707
     16 C          63.5267   84.2608   15.3962 C.ar    1  UNL1        0.1393
     17 C          63.6030   82.7343   15.5611 C.ar    1  UNL1        0.0378
     18 C          63.4341   81.5984   14.5962 C.ar    1  UNL1        0.0147
     19 C          63.1274   81.8781   13.1547 C.ar    1  UNL1        0.0622
     20 CL         62.9585   80.7421   12.1898 Cl      1  UNL1       -0.0821
     21 C          62.9896   83.2937   12.6783 C.ar    1  UNL1        0.0669
     22 C          63.2868   83.4829   14.1363 C.ar    1  UNL1        0.0423
     23 H          62.2863   84.1088    9.3964 H       1  UNL1        0.1500
     24 C          61.9764   85.7170    8.1163 C.2     1  UNL1        0.0686
     25 O          62.9469   84.8805    7.3364 O.co2   1  UNL1       -0.5475
     26 OXT        60.7184   86.2099    7.4647 O.co2   1  UNL1       -0.5475
@<TRIPOS>UNITY_ATOM_ATTR
25 1
charge -1
@<TRIPOS>BOND
     1     1     2    2
     2     2     3   am
     3     3     4    1
     4     4    24    1
     5    24    25   ar
     6    24    26   ar
     7     4     5    1
     8     5     6    1
     9     6     7   ar
    10     7     8   ar
    11     8     9   ar
    12     9    10   ar
    13     8    11    1
    14    11    12    1
    15    12    13    2
    16    13    14    1
    17    14    15    1
    18    15    16    1
    19    16    17   ar
    20    17    18   ar
    21    18    19   ar
    22    19    20    1
    23    19    21   ar
    24    21    22   ar
    25    21     2    1
    26    10     6   ar
    27    22    16   ar
    28     3    23    1
@<TRIPOS>MOLECULE
*****
 26 28 0 0 0
SMALL
GASTEIGER

@<TRIPOS>ATOM
      1 O          62.7021   89.3945    9.3287 O.2     1  UNL1       -0.2701
      2 C          62.7569   88.4857   10.5209 C.2     1  UNL1        0.2470
      3 N          62.5314   87.1400    9.8977 N.am    1  UNL1       -0.2972
      4 CA         62.3677   85.6491    9.8779 C.3     1  UNL1        0.1143
      5 C          62.2940   84.2707   10.4650 C.3     1  UNL1        0.0727
      6 C          62.3231   83.2432   11.5576 C.ar    1  UNL1        0.0799
      7 C          62.5666   83.9539   12.8559 C.ar    1  UNL1        0.0923
      8 N          62.5957   82.9264   13.9483 N.ar    1  UNL1       -0.3039
      9 C          62.3702   81.5808   13.3252 C.ar    1  UNL1        0.1785
     10 N          62.2018   81.7766   11.8476 N.ar    1  UNL1       -0.2282
     11 C          62.8961   83.5709   15.7464 C.3     1  UNL1        0.1339
     12 C          63.1382   84.7534   16.6369 C.2     1  UNL1       -0.0026
     13 C          63.3372   86.2034   16.9656 C.2     1  UNL1        0.0180
     14 C          63.4585   87.6701   16.6755 C.3     1  UNL1        0.2315
     15 O          63.4813   88.8999   15.8170 O.3     1  UNL1       -0.4707
     16 C          63.4016   89.6801   14.5384 C.ar    1  UNL1        0.1393
     17 C          63.4995   91.1411   14.0702 C.ar    1  UNL1        0.0378
     18 C          63.3956   91.7842   12.7190 C.ar    1  UNL1        0.0147
     19 C          63.1484   90.9403   11.5038 C.ar    1  UNL1        0.0622
     20 CL         63.0445   91.5834   10.1526 Cl      1  UNL1       -0.0821
     21 C          63.0051   89.4534   11.6397 C.ar    1  UNL1        0.0669
     22 C          63.2331   89.8759   13.0608 C.ar    1  UNL1        0.0423
     23 H          62.4340   87.3692    8.9453 H       1  UNL1        0.1500
     24 C          62.1511   85.3784    8.4186 C.2     1  UNL1        0.0686
     25 O          63.1265   84.5273    7.6608 O.co2   1  UNL1       -0.5475
     26 OXT        60.9591   85.9589    7.7169 O.co2   1  UNL1       -0.5475
@<TRIPOS>UNITY_ATOM_ATTR
25 1
charge -1
@<TRIPOS>BOND
     1     1     2    2
     2     2     3   am
     3     3     4    1
     4     4    24    1
     5    24    25   ar
     6    24    26   ar
     7     4     5    1
     8     5     6    1
     9     6     7   ar
    10     7     8   ar
    11     8     9   ar
    12     9    10   ar
    13     8    11    1
    14    11    12    1
    15    12    13    2
    16    13    14    1
    17    14    15    1
    18    15    16    1
    19    16    17   ar
    20    17    18   ar
    21    18    19   ar
    22    19    20    1
    23    19    21   ar
    24    21    22   ar
    25    21     2    1
    26    10     6   ar
    27    22    16   ar
    28     3    23    1
@<TRIPOS>MOLECULE
*****
 26 28 0 0 0
SMALL
GASTEIGER

@<TRIPOS>ATOM
      1 O          62.7698   87.1473    8.9564 O.2     1  UNL1       -0.2701
      2 C          62.8246   87.1412   10.4554 C.2     1  UNL1        0.2470
      3 N          62.9879   88.5993   10.7675 N.am    1  UNL1       -0.2972
      4 CA         63.1457   89.8027   11.6489 C.3     1  UNL1        0.1143
      5 C          63.2708   90.5434   12.9472 C.3     1  UNL1        0.0727
      6 C          63.3416   90.6933   14.4381 C.ar    1  UNL1        0.0799
      7 C          63.2220   89.3278   15.0474 C.ar    1  UNL1        0.0923
      8 N          63.2928   89.4777   16.5382 N.ar    1  UNL1       -0.3039
      9 C          63.4561   90.9358   16.8503 C.ar    1  UNL1        0.1785
     10 N          63.4862   91.6870   15.5523 N.ar    1  UNL1       -0.2282
     11 C          63.1630   87.8581   17.5865 C.3     1  UNL1        0.1339
     12 C          63.0078   86.3662   17.5862 C.2     1  UNL1       -0.0026
     13 C          62.8436   85.0057   16.9761 C.2     1  UNL1        0.0180
     14 C          62.6990   84.0120   15.8619 C.3     1  UNL1        0.2315
     15 O          62.5988   83.5567   14.4361 O.3     1  UNL1       -0.4707
     16 C          62.5606   83.7188   12.9454 C.ar    1  UNL1        0.1393
     17 C          62.4226   82.8390   11.6924 C.ar    1  UNL1        0.0378
     18 C          62.4013   83.1552   10.2262 C.ar    1  UNL1        0.0147
     19 C          62.5320   84.5760    9.7634 C.ar    1  UNL1        0.0622
     20 CL         62.5107   84.8922    8.2972 Cl      1  UNL1       -0.0821
     21 C          62.6841   85.6806   10.7667 C.ar    1  UNL1        0.0669
     22 C          62.5907   84.4700   11.6475 C.ar    1  UNL1        0.0423
     23 H          62.9964   89.0012    9.8688 H       1  UNL1        0.1500
     24 C          63.2244   90.9155   10.6462 C.2     1  UNL1        0.0686
     25 O          62.2526   90.9667    9.5048 O.co2   1  UNL1       -0.5475
     26 OXT        64.2750   91.9772   10.7849 O.co2   1  UNL1       -0.5475
@<TRIPOS>UNITY_ATOM_ATTR
25 1
charge -1
@<TRIPOS>BOND
     1     1     2    2
     2     2     3   am
     3     3     4    1
     4     4    24    1
     5    24    25   ar
     6    24    26   ar
     7     4     5    1
     8     5     6    1
     9     6     7   ar
    10     7     8   ar
    11     8     9   ar
    12     9    10   ar
    13     8    11    1
    14    11    12    1
    15    12    13    2
    16    13    14    1
    17    14    15    1
    18    15    16    1
    19    16    17   ar
    20    17    18   ar
    21    18    19   ar
    22    19    20    1
    23    19    21   ar
    24    21    22   ar
    25    21     2    1
    26    10     6   ar
    27    22    16   ar
    28     3    23    1
@<TRIPOS>MOLECULE
*****
 26 28 0 0 0
SMALL
GASTEIGER

@<TRIPOS>ATOM
      1 O          63.0484   90.5954   14.6891 O.2     1  UNL1       -0.2701
      2 C          62.9695   89.1934   14.1616 C.2     1  UNL1        0.2470
      3 N          62.8783   89.4217   12.6818 N.am    1  UNL1       -0.2972
      4 CA         62.7701   89.0276   11.2386 C.3     1  UNL1        0.1143
      5 C          62.6636   88.0792   10.0814 C.3     1  UNL1        0.0727
      6 C          62.5771   86.7404    9.4103 C.ar    1  UNL1        0.0799
      7 C          62.6148   85.6848   10.4753 C.ar    1  UNL1        0.0923
      8 N          62.5283   84.3461    9.8042 N.ar    1  UNL1       -0.3039
      9 C          62.4371   84.5743    8.3245 C.ar    1  UNL1        0.1785
     10 N          62.4673   86.0541    8.0810 N.ar    1  UNL1       -0.2282
     11 C          62.5558   82.7899   10.9515 C.3     1  UNL1        0.1339
     12 C          62.6322   82.2585   12.3521 C.2     1  UNL1       -0.0026
     13 C          62.7341   82.3433   13.8463 C.2     1  UNL1        0.0180
     14 C          62.8439   83.0296   15.1756 C.3     1  UNL1        0.2315
     15 O          62.9425   84.1987   16.1101 O.3     1  UNL1       -0.4707
     16 C          63.0131   85.6485   16.4884 C.ar    1  UNL1        0.1393
     17 C          63.1244   86.5050   17.7600 C.ar    1  UNL1        0.0378
     18 C          63.1857   87.9868   17.9848 C.ar    1  UNL1        0.0147
     19 C          63.1374   88.9254   16.8158 C.ar    1  UNL1        0.0622
     20 CL         63.1987   90.4072   17.0406 Cl      1  UNL1       -0.0821
     21 C          63.0278   88.3822   15.4219 C.ar    1  UNL1        0.0669
     22 C          63.0432   87.1283   16.2449 C.ar    1  UNL1        0.0423
     23 H          62.9053   90.4041   12.6243 H       1  UNL1        0.1500
     24 C          62.7662   90.3605   10.5507 C.2     1  UNL1        0.0686
     25 O          61.6633   90.7082    9.5953 O.co2   1  UNL1       -0.5475
     26 OXT        63.8651   91.3459   10.8182 O.co2   1  UNL1       -0.5475
@<TRIPOS>UNITY_ATOM_ATTR
25 1
charge -1
@<TRIPOS>BOND
     1     1     2    2
     2     2     3   am
     3     3     4    1
     4     4    24    1
     5    24    25   ar
     6    24    26   ar
     7     4     5    1
     8     5     6    1
     9     6     7   ar
    10     7     8   ar
    11     8     9   ar
    12     9    10   ar
    13     8    11    1
    14    11    12    1
    15    12    13    2
    16    13    14    1
    17    14    15    1
    18    15    16    1
    19    16    17   ar
    20    17    18   ar
    21    18    19   ar
    22    19    20    1
    23    19    21   ar
    24    21    22   ar
    25    21     2    1
    26    10     6   ar
    27    22    16   ar
    28     3    23    1
