@<TRIPOS>MOLECULE
*****
 32 36 0 0 0
SMALL
GASTEIGER

@<TRIPOS>ATOM
      1 C          64.4564   89.6111   14.2870 C.3     1  UNL1        0.0181
      2 C          63.8461   88.4817   13.5112 C.3     1  UNL1        0.0036
      3 C          63.3381   87.1764   12.9741 C.3     1  UNL1        0.0228
      4 C          63.7003   86.0997   13.9536 C.3     1  UNL1        0.0899
      5 C          64.4321   86.7394   15.0961 C.3     1  UNL1        0.0228
      6 C          64.5222   88.2115   14.8227 C.3     1  UNL1        0.0036
      7 N          63.3858   84.6396   13.8150 N.ar    1  UNL1       -0.2800
      8 C          62.9701   83.8445   15.0170 C.ar    1  UNL1        0.1807
      9 N          62.6557   82.3844   14.8784 N.ar    1  UNL1       -0.2251
     10 C          62.7569   81.7194   13.5377 C.ar    1  UNL1        0.0898
     11 C          62.4424   80.2593   13.3990 C.ar    1  UNL1        0.0195
     12 C          62.5437   79.5943   12.0583 C.ar    1  UNL1        0.0039
     13 C          62.9593   80.3894   10.8562 C.ar    1  UNL1        0.0299
     14 C          63.2738   81.8495   10.9949 C.ar    1  UNL1        0.1461
     15 F          63.6895   82.6446    9.7928 F       1  UNL1       -0.2040
     16 C          63.1726   82.5145   12.3356 C.ar    1  UNL1        0.1012
     17 C          63.4870   83.9746   12.4743 C.ar    1  UNL1        0.2656
     18 O          63.9027   84.7697   11.2722 O.2     1  UNL1       -0.2668
     19 C          64.7709   91.0712   14.4256 C.3     1  UNL1        0.0718
     20 N          65.0302   91.9018   13.2039 N.am    1  UNL1       -0.3025
     21 C          66.4391   92.1679   12.7630 C.2     1  UNL1        0.2458
     22 O          67.5886   91.6034   13.5440 O.2     1  UNL1       -0.2701
     23 H          64.2757   92.2723   12.6913 H       1  UNL1        0.1497
     24 C          66.6985   92.9985   11.5412 C.ar    1  UNL1        0.0534
     25 C          66.0628   94.3503   11.4045 C.ar    1  UNL1        0.0054
     26 C          66.3221   95.1809   10.1827 C.ar    1  UNL1        0.0115
     27 C          67.2171   94.6598    9.0976 C.ar    1  UNL1        0.0577
     28 CL         67.4765   95.4904    7.8758 Cl      1  UNL1       -0.0822
     29 C          67.8528   93.3080    9.2343 C.ar    1  UNL1        0.0115
     30 C          67.5935   92.4774   10.4562 C.ar    1  UNL1        0.0054
     31 C          65.9913   92.5654   16.1657 C.3     1  UNL1        0.0017
     32 C          64.8259   91.7007   15.7861 C.3     1  UNL1        0.0196
@<TRIPOS>BOND
     1    31    32    1
     2    32    19    1
     3    19    20    1
     4    20    21   am
     5    21    22    2
     6    21    24    1
     7    24    25   ar
     8    25    26   ar
     9    26    27   ar
    10    27    28    1
    11    27    29   ar
    12    29    30   ar
    13     1    19    1
    14     1     2    1
    15     2     3    1
    16     3     4    1
    17     4     7    1
    18     7     8   ar
    19     8     9   ar
    20     9    10   ar
    21    10    11   ar
    22    11    12   ar
    23    12    13   ar
    24    13    14   ar
    25    14    15    1
    26    14    16   ar
    27    16    17   ar
    28    17    18    2
    29     4     5    1
    30     6     5    1
    31    30    24   ar
    32     6     1    1
    33     6     2    1
    34    17     7   ar
    35    16    10   ar
    36    20    23    1
@<TRIPOS>MOLECULE
*****
 32 36 0 0 0
SMALL
GASTEIGER

@<TRIPOS>ATOM
      1 C          63.9630   89.4475   13.6790 C.3     1  UNL1        0.0181
      2 C          63.4685   88.4246   12.6997 C.3     1  UNL1        0.0036
      3 C          63.0950   87.1962   11.9240 C.3     1  UNL1        0.0228
      4 C          63.5707   85.9997   12.6935 C.3     1  UNL1        0.0899
      5 C          64.2382   86.4886   13.9447 C.3     1  UNL1        0.0228
      6 C          64.1750   87.9872   13.9485 C.3     1  UNL1        0.0036
      7 N          63.4075   84.5660   12.2837 N.ar    1  UNL1       -0.2800
      8 C          63.8253   84.1259   10.9119 C.ar    1  UNL1        0.1807
      9 N          63.6621   82.6922   10.5021 N.ar    1  UNL1       -0.2251
     10 C          63.0812   81.6986   11.4640 C.ar    1  UNL1        0.0898
     11 C          62.9181   80.2650   11.0542 C.ar    1  UNL1        0.0195
     12 C          62.3372   79.2714   12.0161 C.ar    1  UNL1        0.0039
     13 C          61.9195   79.7115   13.3879 C.ar    1  UNL1        0.0299
     14 C          62.0826   81.1451   13.7978 C.ar    1  UNL1        0.1461
     15 F          61.6649   81.5852   15.1696 F       1  UNL1       -0.2040
     16 C          62.6635   82.1387   12.8358 C.ar    1  UNL1        0.1012
     17 C          62.8267   83.5724   13.2457 C.ar    1  UNL1        0.2656
     18 O          62.4089   84.0125   14.6175 O.2     1  UNL1       -0.2668
     19 C          64.1262   90.8812   14.0887 C.3     1  UNL1        0.0718
     20 N          64.4994   91.9151   13.0681 N.am    1  UNL1       -0.3025
     21 C          65.9405   92.2733   12.8557 C.2     1  UNL1        0.2458
     22 O          67.0083   91.5976   13.6639 O.2     1  UNL1       -0.2701
     23 H          63.7986   92.3586   12.5376 H       1  UNL1        0.1497
     24 C          66.3137   93.3072   11.8350 C.ar    1  UNL1        0.0534
     25 C          66.1273   94.7639   12.1402 C.ar    1  UNL1        0.0054
     26 C          66.5005   95.7978   11.1196 C.ar    1  UNL1        0.0115
     27 C          67.0602   95.3750    9.7937 C.ar    1  UNL1        0.0577
     28 CL         67.4335   96.4089    8.7731 Cl      1  UNL1       -0.0822
     29 C          67.2467   93.9183    9.4885 C.ar    1  UNL1        0.0115
     30 C          66.8734   92.8843   10.5091 C.ar    1  UNL1        0.0054
     31 C          63.4745   90.2606   16.5260 C.3     1  UNL1        0.0017
     32 C          63.9161   91.2810   15.5191 C.3     1  UNL1        0.0196
@<TRIPOS>BOND
     1    31    32    1
     2    32    19    1
     3    19    20    1
     4    20    21   am
     5    21    22    2
     6    21    24    1
     7    24    25   ar
     8    25    26   ar
     9    26    27   ar
    10    27    28    1
    11    27    29   ar
    12    29    30   ar
    13     1    19    1
    14     1     2    1
    15     2     3    1
    16     3     4    1
    17     4     7    1
    18     7     8   ar
    19     8     9   ar
    20     9    10   ar
    21    10    11   ar
    22    11    12   ar
    23    12    13   ar
    24    13    14   ar
    25    14    15    1
    26    14    16   ar
    27    16    17   ar
    28    17    18    2
    29     4     5    1
    30     6     5    1
    31    30    24   ar
    32     6     1    1
    33     6     2    1
    34    17     7   ar
    35    16    10   ar
    36    20    23    1
@<TRIPOS>MOLECULE
*****
 32 36 0 0 0
SMALL
GASTEIGER

@<TRIPOS>ATOM
      1 C          60.1471   91.2298    4.8314 C.3     1  UNL1        0.0181
      2 C          61.3910   91.4162    4.0141 C.3     1  UNL1        0.0036
      3 C          62.4677   91.8256    3.0532 C.3     1  UNL1        0.0228
      4 C          61.9275   92.9315    2.1958 C.3     1  UNL1        0.0899
      5 C          60.5172   93.2056    2.6266 C.3     1  UNL1        0.0228
      6 C          60.1855   92.2691    3.7504 C.3     1  UNL1        0.0036
      7 N          62.6680   93.6392    1.0998 N.ar    1  UNL1       -0.2800
      8 C          63.8483   94.5042    1.4292 C.ar    1  UNL1        0.1807
      9 N          64.5887   95.2118    0.3333 N.ar    1  UNL1       -0.2251
     10 C          64.1488   95.0544   -1.0921 C.ar    1  UNL1        0.0898
     11 C          64.8892   95.7620   -2.1881 C.ar    1  UNL1        0.0195
     12 C          64.4492   95.6046   -3.6134 C.ar    1  UNL1        0.0039
     13 C          63.2689   94.7396   -3.9428 C.ar    1  UNL1        0.0299
     14 C          62.5285   94.0320   -2.8469 C.ar    1  UNL1        0.1461
     15 F          61.3481   93.1670   -3.1763 F       1  UNL1       -0.2040
     16 C          62.9684   94.1894   -1.4216 C.ar    1  UNL1        0.1012
     17 C          62.2280   93.4818   -0.3256 C.ar    1  UNL1        0.2656
     18 O          61.0477   92.6167   -0.6550 O.2     1  UNL1       -0.2668
     19 C          59.4068   90.5222    5.9274 C.3     1  UNL1        0.0718
     20 N          60.1627   89.9098    7.0691 N.am    1  UNL1       -0.3025
     21 C          59.7352   88.5844    7.6266 C.2     1  UNL1        0.2458
     22 O          58.5518   87.8715    7.0424 O.2     1  UNL1       -0.2701
     23 H          60.9394   90.3777    7.4525 H       1  UNL1        0.1497
     24 C          60.4912   87.9721    8.7683 C.ar    1  UNL1        0.0534
     25 C          60.4579   86.4873    8.9794 C.ar    1  UNL1        0.0054
     26 C          61.2139   85.8749   10.1210 C.ar    1  UNL1        0.0115
     27 C          62.0031   86.7472   11.0517 C.ar    1  UNL1        0.0577
     28 CL         62.7590   86.1349   12.1934 Cl      1  UNL1       -0.0822
     29 C          62.0364   88.2319   10.8407 C.ar    1  UNL1        0.0115
     30 C          61.2804   88.8444    9.6990 C.ar    1  UNL1        0.0054
     31 C          57.1265   91.3544    5.0013 C.3     1  UNL1        0.0017
     32 C          57.9105   90.4269    5.8816 C.3     1  UNL1        0.0196
@<TRIPOS>BOND
     1    31    32    1
     2    32    19    1
     3    19    20    1
     4    20    21   am
     5    21    22    2
     6    21    24    1
     7    24    25   ar
     8    25    26   ar
     9    26    27   ar
    10    27    28    1
    11    27    29   ar
    12    29    30   ar
    13     1    19    1
    14     1     2    1
    15     2     3    1
    16     3     4    1
    17     4     7    1
    18     7     8   ar
    19     8     9   ar
    20     9    10   ar
    21    10    11   ar
    22    11    12   ar
    23    12    13   ar
    24    13    14   ar
    25    14    15    1
    26    14    16   ar
    27    16    17   ar
    28    17    18    2
    29     4     5    1
    30     6     5    1
    31    30    24   ar
    32     6     1    1
    33     6     2    1
    34    17     7   ar
    35    16    10   ar
    36    20    23    1
@<TRIPOS>MOLECULE
*****
 32 36 0 0 0
SMALL
GASTEIGER

@<TRIPOS>ATOM
      1 C          64.1016   89.0444   14.7634 C.3     1  UNL1        0.0181
      2 C          63.9307   90.0802   13.6920 C.3     1  UNL1        0.0036
      3 C          64.0314   91.2275   12.7308 C.3     1  UNL1        0.0228
      4 C          65.2945   91.9773   13.0349 C.3     1  UNL1        0.0899
      5 C          65.9744   91.2935   14.1839 C.3     1  UNL1        0.0228
      6 C          65.1316   90.1210   14.5900 C.3     1  UNL1        0.0036
      7 N          65.7905   93.1970   12.3161 N.ar    1  UNL1       -0.2800
      8 C          65.6830   94.5453   12.9646 C.ar    1  UNL1        0.1807
      9 N          66.1790   95.7648   12.2459 N.ar    1  UNL1       -0.2251
     10 C          66.7825   95.6361   10.8786 C.ar    1  UNL1        0.0898
     11 C          67.2784   96.8557   10.1599 C.ar    1  UNL1        0.0195
     12 C          67.8819   96.7270    8.7927 C.ar    1  UNL1        0.0039
     13 C          67.9893   95.3787    8.1443 C.ar    1  UNL1        0.0299
     14 C          67.4934   94.1591    8.8630 C.ar    1  UNL1        0.1461
     15 F          67.6008   92.8108    8.2145 F       1  UNL1       -0.2040
     16 C          66.8899   94.2878   10.2302 C.ar    1  UNL1        0.1012
     17 C          66.3939   93.0682   10.9490 C.ar    1  UNL1        0.2656
     18 O          66.5014   91.7199   10.3005 O.2     1  UNL1       -0.2668
     19 C          63.6056   87.8249   15.4821 C.3     1  UNL1        0.0718
     20 N          63.2720   86.5830   14.7098 N.am    1  UNL1       -0.3025
     21 C          64.3284   85.5472   14.4624 C.2     1  UNL1        0.2458
     22 O          65.7184   85.7533   14.9872 O.2     1  UNL1       -0.2701
     23 H          62.3597   86.4477   14.3654 H       1  UNL1        0.1497
     24 C          63.9948   84.3053   13.6901 C.ar    1  UNL1        0.0534
     25 C          63.9896   82.9726   14.3786 C.ar    1  UNL1        0.0054
     26 C          63.6560   81.7308   13.6063 C.ar    1  UNL1        0.0115
     27 C          63.3276   81.8215   12.1455 C.ar    1  UNL1        0.0577
     28 CL         62.9940   80.5797   11.3732 Cl      1  UNL1       -0.0822
     29 C          63.3328   83.1542   11.4570 C.ar    1  UNL1        0.0115
     30 C          63.6664   84.3961   12.2293 C.ar    1  UNL1        0.0054
     31 C          62.7287   86.7253   17.6666 C.3     1  UNL1        0.0017
     32 C          63.4431   87.8472   16.9731 C.3     1  UNL1        0.0196
@<TRIPOS>BOND
     1    31    32    1
     2    32    19    1
     3    19    20    1
     4    20    21   am
     5    21    22    2
     6    21    24    1
     7    24    25   ar
     8    25    26   ar
     9    26    27   ar
    10    27    28    1
    11    27    29   ar
    12    29    30   ar
    13     1    19    1
    14     1     2    1
    15     2     3    1
    16     3     4    1
    17     4     7    1
    18     7     8   ar
    19     8     9   ar
    20     9    10   ar
    21    10    11   ar
    22    11    12   ar
    23    12    13   ar
    24    13    14   ar
    25    14    15    1
    26    14    16   ar
    27    16    17   ar
    28    17    18    2
    29     4     5    1
    30     6     5    1
    31    30    24   ar
    32     6     1    1
    33     6     2    1
    34    17     7   ar
    35    16    10   ar
    36    20    23    1
@<TRIPOS>MOLECULE
*****
 32 36 0 0 0
SMALL
GASTEIGER

@<TRIPOS>ATOM
      1 C          63.2324   88.9592   12.0838 C.3     1  UNL1        0.0181
      2 C          63.5391   87.7422   12.9052 C.3     1  UNL1        0.0036
      3 C          63.6601   86.3793   13.5201 C.3     1  UNL1        0.0228
      4 C          62.8361   85.4278   12.7041 C.3     1  UNL1        0.0899
      5 C          62.2059   86.2026   11.5849 C.3     1  UNL1        0.0228
      6 C          62.6403   87.6329   11.7092 C.3     1  UNL1        0.0036
      7 N          62.6714   83.9593   12.9621 N.ar    1  UNL1       -0.2800
      8 C          62.2808   83.4770   14.3277 C.ar    1  UNL1        0.1807
      9 N          62.1160   82.0086   14.5857 N.ar    1  UNL1       -0.2251
     10 C          62.3419   81.0225   13.4781 C.ar    1  UNL1        0.0898
     11 C          62.1771   79.5541   13.7361 C.ar    1  UNL1        0.0195
     12 C          62.4030   78.5680   12.6286 C.ar    1  UNL1        0.0039
     13 C          62.7936   79.0504   11.2630 C.ar    1  UNL1        0.0299
     14 C          62.9583   80.5188   11.0050 C.ar    1  UNL1        0.1461
     15 F          63.3489   81.0012    9.6394 F       1  UNL1       -0.2040
     16 C          62.7325   81.5048   12.1125 C.ar    1  UNL1        0.1012
     17 C          62.8972   82.9733   11.8546 C.ar    1  UNL1        0.2656
     18 O          63.2878   83.4557   10.4890 O.2     1  UNL1       -0.2668
     19 C          63.3972   90.4277   11.8259 C.3     1  UNL1        0.0718
     20 N          64.5853   91.1575   12.3786 N.am    1  UNL1       -0.3025
     21 C          64.8936   91.0866   13.8450 C.2     1  UNL1        0.2458
     22 O          64.0137   90.2858   14.7585 O.2     1  UNL1       -0.2701
     23 H          65.1629   91.6831   11.7791 H       1  UNL1        0.1497
     24 C          66.0818   91.8164   14.3977 C.ar    1  UNL1        0.0534
     25 C          66.0128   92.4373   15.7615 C.ar    1  UNL1        0.0054
     26 C          67.2010   93.1671   16.3142 C.ar    1  UNL1        0.0115
     27 C          68.4582   93.2761   15.5032 C.ar    1  UNL1        0.0577
     28 CL         69.6463   94.0059   16.0560 Cl      1  UNL1       -0.0822
     29 C          68.5272   92.6552   14.1395 C.ar    1  UNL1        0.0115
     30 C          67.3390   91.9254   13.5867 C.ar    1  UNL1        0.0054
     31 C          61.2338   90.4206   10.3872 C.3     1  UNL1        0.0017
     32 C          62.3738   91.1662   11.0152 C.3     1  UNL1        0.0196
@<TRIPOS>BOND
     1    31    32    1
     2    32    19    1
     3    19    20    1
     4    20    21   am
     5    21    22    2
     6    21    24    1
     7    24    25   ar
     8    25    26   ar
     9    26    27   ar
    10    27    28    1
    11    27    29   ar
    12    29    30   ar
    13     1    19    1
    14     1     2    1
    15     2     3    1
    16     3     4    1
    17     4     7    1
    18     7     8   ar
    19     8     9   ar
    20     9    10   ar
    21    10    11   ar
    22    11    12   ar
    23    12    13   ar
    24    13    14   ar
    25    14    15    1
    26    14    16   ar
    27    16    17   ar
    28    17    18    2
    29     4     5    1
    30     6     5    1
    31    30    24   ar
    32     6     1    1
    33     6     2    1
    34    17     7   ar
    35    16    10   ar
    36    20    23    1
@<TRIPOS>MOLECULE
*****
 32 36 0 0 0
SMALL
GASTEIGER

@<TRIPOS>ATOM
      1 C          63.9372   87.7275   14.6758 C.3     1  UNL1        0.0181
      2 C          64.8086   88.9324   14.8734 C.3     1  UNL1        0.0036
      3 C          65.5327   90.2449   14.8159 C.3     1  UNL1        0.0228
      4 C          65.0103   91.0111   13.6369 C.3     1  UNL1        0.0899
      5 C          63.9635   90.1723   12.9658 C.3     1  UNL1        0.0228
      6 C          63.8388   88.8876   13.7299 C.3     1  UNL1        0.0036
      7 N          65.4566   92.3765   13.2049 N.ar    1  UNL1       -0.2800
      8 C          65.8592   93.3936   14.2313 C.ar    1  UNL1        0.1807
      9 N          66.3054   94.7589   13.7994 N.ar    1  UNL1       -0.2251
     10 C          66.3491   95.1073   12.3410 C.ar    1  UNL1        0.0898
     11 C          66.7953   96.4726   11.9090 C.ar    1  UNL1        0.0195
     12 C          66.8389   96.8210   10.4507 C.ar    1  UNL1        0.0039
     13 C          66.4363   95.8039    9.4243 C.ar    1  UNL1        0.0299
     14 C          65.9900   94.4385    9.8563 C.ar    1  UNL1        0.1461
     15 F          65.5874   93.4215    8.8299 F       1  UNL1       -0.2040
     16 C          65.9464   94.0902   11.3146 C.ar    1  UNL1        0.1012
     17 C          65.5002   92.7248   11.7466 C.ar    1  UNL1        0.2656
     18 O          65.0975   91.7077   10.7202 O.2     1  UNL1       -0.2668
     19 C          63.4910   86.3622   15.1078 C.3     1  UNL1        0.0718
     20 N          63.1914   85.3111   14.0805 N.am    1  UNL1       -0.3025
     21 C          64.1992   84.2392   13.7880 C.2     1  UNL1        0.2458
     22 O          65.5066   84.2184   14.5230 O.2     1  UNL1       -0.2701
     23 H          62.3332   85.3248   13.5981 H       1  UNL1        0.1497
     24 C          63.8995   83.1882   12.7607 C.ar    1  UNL1        0.0534
     25 C          64.2973   83.4025   11.3303 C.ar    1  UNL1        0.0054
     26 C          63.9977   82.3515   10.3030 C.ar    1  UNL1        0.0115
     27 C          63.3001   81.0861   10.7059 C.ar    1  UNL1        0.0577
     28 CL         63.0004   80.0351    9.6785 Cl      1  UNL1       -0.0822
     29 C          62.9023   80.8718   12.1361 C.ar    1  UNL1        0.0115
     30 C          63.2020   81.9229   13.1636 C.ar    1  UNL1        0.0054
     31 C          62.9661   87.1310   17.5334 C.3     1  UNL1        0.0017
     32 C          63.3445   86.0478   16.5672 C.3     1  UNL1        0.0196
@<TRIPOS>BOND
     1    31    32    1
     2    32    19    1
     3    19    20    1
     4    20    21   am
     5    21    22    2
     6    21    24    1
     7    24    25   ar
     8    25    26   ar
     9    26    27   ar
    10    27    28    1
    11    27    29   ar
    12    29    30   ar
    13     1    19    1
    14     1     2    1
    15     2     3    1
    16     3     4    1
    17     4     7    1
    18     7     8   ar
    19     8     9   ar
    20     9    10   ar
    21    10    11   ar
    22    11    12   ar
    23    12    13   ar
    24    13    14   ar
    25    14    15    1
    26    14    16   ar
    27    16    17   ar
    28    17    18    2
    29     4     5    1
    30     6     5    1
    31    30    24   ar
    32     6     1    1
    33     6     2    1
    34    17     7   ar
    35    16    10   ar
    36    20    23    1
