@<TRIPOS>MOLECULE
*****
 45 48 0 0 0
SMALL
GASTEIGER

@<TRIPOS>ATOM
      1 N          62.1409   89.4446   12.1621 N.3     1  UNL1       -0.2699
      2 C          62.6317   90.1371   13.3988 C.3     1  UNL1        0.0924
      3 C          64.0933   90.4313   13.5637 C.3     1  UNL1        0.0950
      4 N          64.7326   91.5274   12.7639 N.am    1  UNL1       -0.2706
      5 C          65.4856   92.6223   13.4597 C.2     1  UNL1        0.4020
      6 O          65.5993   92.6210   14.9554 O.2     1  UNL1       -0.2264
      7 H          64.6580   91.5283   11.7822 H       1  UNL1        0.1527
      8 O          66.1249   93.7185   12.6600 O.3     1  UNL1       -0.4291
      9 C          65.8086   93.8648   11.2010 C.3     1  UNL1        0.2447
     10 C          66.8387   93.5080   10.1708 C.ar    1  UNL1        0.0714
     11 C          67.1464   94.2854    8.9254 C.ar    1  UNL1        0.1053
     12 N          68.2399   93.5690    8.1899 N.ar    1  UNL1       -0.2350
     13 C          68.6081   92.3487    8.9807 C.ar    1  UNL1        0.1343
     14 S          67.7422   92.3109   10.2050 S.2     1  UNL1       -0.0652
     15 C          64.9156   89.6293   14.5284 C.3     1  UNL1        0.0474
     16 C          64.2854   88.5072   15.2990 C.ar    1  UNL1       -0.0205
     17 C          64.5211   87.0857   14.8819 C.ar    1  UNL1       -0.0042
     18 C          63.8909   85.9637   15.6525 C.ar    1  UNL1       -0.0003
     19 C          63.0249   86.2631   16.8401 C.ar    1  UNL1       -0.0000
     20 C          62.7892   87.6845   17.2572 C.ar    1  UNL1       -0.0003
     21 C          63.4194   88.8066   16.4866 C.ar    1  UNL1       -0.0042
     22 C          62.7245   88.1222   11.7612 C.3     1  UNL1        0.0924
     23 C          62.0421   87.2861   10.7195 C.3     1  UNL1        0.0950
     24 N          61.8498   87.8250    9.3330 N.am    1  UNL1       -0.2706
     25 C          60.4739   87.8952    8.7398 C.2     1  UNL1        0.4020
     26 O          59.2903   87.4265    9.5331 O.2     1  UNL1       -0.2264
     27 H          62.6266   88.1327    8.8123 H       1  UNL1        0.1527
     28 O          60.2815   88.4342    7.3532 O.3     1  UNL1       -0.4274
     29 C          58.9230   88.8864    6.9061 C.3     1  UNL1        0.2621
     30 C          58.7872   90.0868    6.0168 C.ar    1  UNL1        0.1323
     31 N          57.5019   90.7562    5.6295 N.ar    1  UNL1       -0.2374
     32 C          57.8331   91.9115    4.7321 C.ar    1  UNL1        0.1062
     33 C          59.3231   91.9562    4.5647 C.ar    1  UNL1        0.0573
     34 S          59.9127   90.8284    5.3587 S.2     1  UNL1       -0.0666
     35 C          61.5521   85.9109   11.0643 C.3     1  UNL1        0.0474
     36 C          62.5328   84.7943   11.2675 C.ar    1  UNL1       -0.0205
     37 C          63.2462   84.1990   10.0899 C.ar    1  UNL1       -0.0042
     38 C          64.2269   83.0824   10.2930 C.ar    1  UNL1       -0.0003
     39 C          64.4943   82.5610   11.6739 C.ar    1  UNL1       -0.0000
     40 C          63.7810   83.1562   12.8515 C.ar    1  UNL1       -0.0003
     41 C          62.8002   84.2729   12.6483 C.ar    1  UNL1       -0.0042
     42 C          61.0664   90.0744   11.3262 C.3     1  UNL1        0.0721
     43 C          58.7637   91.2603   11.5291 C.3     1  UNL1        0.0014
     44 C          59.6466   90.0807   11.8100 C.3     1  UNL1        0.0160
     45 C          59.1097   88.9072   12.5748 C.3     1  UNL1        0.0014
@<TRIPOS>BOND
     1    43    44    1
     2    44    45    1
     3    44    42    1
     4    42     1    1
     5     1    22    1
     6    23    22    1
     7    23    35    1
     8    35    36    1
     9    36    37   ar
    10    37    38   ar
    11    38    39   ar
    12    39    40   ar
    13    40    41   ar
    14    23    24    1
    15    24    25   am
    16    25    26    2
    17    25    28    1
    18    28    29    1
    19    29    30    1
    20    30    31   ar
    21    31    32   ar
    22    32    33   ar
    23    33    34   ar
    24     1     2    1
    25     3     2    1
    26     3    15    1
    27    15    16    1
    28    16    17   ar
    29    17    18   ar
    30    18    19   ar
    31    19    20   ar
    32    20    21   ar
    33     3     4    1
    34     4     5   am
    35     5     6    2
    36     5     8    1
    37     8     9    1
    38     9    10    1
    39    10    11   ar
    40    11    12   ar
    41    12    13   ar
    42    13    14   ar
    43    41    36   ar
    44    34    30   ar
    45    21    16   ar
    46    14    10   ar
    47    24    27    1
    48     4     7    1
@<TRIPOS>MOLECULE
*****
 45 48 0 0 0
SMALL
GASTEIGER

@<TRIPOS>ATOM
      1 N          62.5464   89.5794   11.5895 N.3     1  UNL1       -0.2699
      2 C          62.6756   90.1314   12.9782 C.3     1  UNL1        0.0924
      3 C          64.0011   90.6389   13.4633 C.3     1  UNL1        0.0950
      4 N          64.8714   91.4531   12.5524 N.am    1  UNL1       -0.2706
      5 C          65.7550   92.5245   13.1192 C.2     1  UNL1        0.4020
      6 O          65.7683   92.7817   14.5969 O.2     1  UNL1       -0.2264
      7 H          64.8626   91.2843   11.5825 H       1  UNL1        0.1527
      8 O          66.6253   93.3387   12.2084 O.3     1  UNL1       -0.4291
      9 C          66.1671   94.6889   11.7424 C.3     1  UNL1        0.2447
     10 C          66.6676   95.2429   10.4414 C.ar    1  UNL1        0.0714
     11 C          67.2048   94.4440    9.2912 C.ar    1  UNL1        0.1053
     12 N          67.5880   95.4005    8.2011 N.ar    1  UNL1       -0.2350
     13 C          67.2875   96.7907    8.6777 C.ar    1  UNL1        0.1343
     14 S          66.7187   96.6934   10.0622 S.2     1  UNL1       -0.0652
     15 C          64.4565   90.3322   14.8592 C.3     1  UNL1        0.0474
     16 C          64.0610   89.0401   15.5103 C.ar    1  UNL1       -0.0205
     17 C          64.5835   87.7398   14.9752 C.ar    1  UNL1       -0.0042
     18 C          64.1880   86.4477   15.6262 C.ar    1  UNL1       -0.0003
     19 C          63.2699   86.4557   16.8124 C.ar    1  UNL1       -0.0000
     20 C          62.7474   87.7559   17.3475 C.ar    1  UNL1       -0.0003
     21 C          63.1429   89.0481   16.6965 C.ar    1  UNL1       -0.0042
     22 C          63.0949   88.2207   11.2684 C.3     1  UNL1        0.0924
     23 C          62.3109   86.9922   11.6237 C.3     1  UNL1        0.0950
     24 N          62.7196   86.1557   12.7998 N.am    1  UNL1       -0.2706
     25 C          63.3472   84.8109   12.5817 C.2     1  UNL1        0.4020
     26 O          63.5661   84.3026   11.1876 O.2     1  UNL1       -0.2264
     27 H          62.5759   86.4893   13.7148 H       1  UNL1        0.1527
     28 O          63.7559   83.9744   13.7577 O.3     1  UNL1       -0.4274
     29 C          62.7171   83.2425   14.5547 C.3     1  UNL1        0.2621
     30 C          62.2884   81.8653   14.1428 C.ar    1  UNL1        0.1323
     31 N          60.9612   81.2305   14.4357 N.ar    1  UNL1       -0.2374
     32 C          60.9641   79.8541   13.8395 C.ar    1  UNL1        0.1062
     33 C          62.2930   79.6382   13.1782 C.ar    1  UNL1        0.0573
     34 S          63.1115   80.8812   13.3656 S.2     1  UNL1       -0.0666
     35 C          61.1181   86.6003   10.8029 C.3     1  UNL1        0.0474
     36 C          61.3060   86.0691    9.4127 C.ar    1  UNL1       -0.0205
     37 C          60.1570   86.0681    8.4485 C.ar    1  UNL1       -0.0042
     38 C          60.3450   85.5369    7.0583 C.ar    1  UNL1       -0.0003
     39 C          61.6820   85.0068    6.6324 C.ar    1  UNL1       -0.0000
     40 C          62.8310   85.0078    7.5966 C.ar    1  UNL1       -0.0003
     41 C          62.6430   85.5390    8.9868 C.ar    1  UNL1       -0.0042
     42 C          61.8688   90.3860   10.5218 C.3     1  UNL1        0.0721
     43 C          59.3839   90.5750   11.2563 C.3     1  UNL1        0.0014
     44 C          60.4106   90.1790   10.2371 C.3     1  UNL1        0.0160
     45 C          59.9793   89.5759    8.9332 C.3     1  UNL1        0.0014
@<TRIPOS>BOND
     1    43    44    1
     2    44    45    1
     3    44    42    1
     4    42     1    1
     5     1    22    1
     6    23    22    1
     7    23    35    1
     8    35    36    1
     9    36    37   ar
    10    37    38   ar
    11    38    39   ar
    12    39    40   ar
    13    40    41   ar
    14    23    24    1
    15    24    25   am
    16    25    26    2
    17    25    28    1
    18    28    29    1
    19    29    30    1
    20    30    31   ar
    21    31    32   ar
    22    32    33   ar
    23    33    34   ar
    24     1     2    1
    25     3     2    1
    26     3    15    1
    27    15    16    1
    28    16    17   ar
    29    17    18   ar
    30    18    19   ar
    31    19    20   ar
    32    20    21   ar
    33     3     4    1
    34     4     5   am
    35     5     6    2
    36     5     8    1
    37     8     9    1
    38     9    10    1
    39    10    11   ar
    40    11    12   ar
    41    12    13   ar
    42    13    14   ar
    43    41    36   ar
    44    34    30   ar
    45    21    16   ar
    46    14    10   ar
    47    24    27    1
    48     4     7    1
@<TRIPOS>MOLECULE
*****
 45 48 0 0 0
SMALL
GASTEIGER

@<TRIPOS>ATOM
      1 N          62.3554   85.7543   12.0925 N.3     1  UNL1       -0.2699
      2 C          62.9898   87.1052   11.9423 C.3     1  UNL1        0.0924
      3 C          62.3035   88.1711   11.1405 C.3     1  UNL1        0.0950
      4 N          63.1071   89.2695   10.5099 N.am    1  UNL1       -0.2706
      5 C          63.1800   90.6167   11.1655 C.2     1  UNL1        0.4020
      6 O          62.4494   90.8653   12.4517 O.2     1  UNL1       -0.2264
      7 H          63.5866   89.1063    9.6657 H       1  UNL1        0.1527
      8 O          63.9836   91.7152   10.5349 O.3     1  UNL1       -0.4291
      9 C          65.0543   92.4089   11.3237 C.3     1  UNL1        0.2447
     10 C          66.1659   93.1227   10.6132 C.ar    1  UNL1        0.0714
     11 C          67.4564   92.5101   10.1555 C.ar    1  UNL1        0.1053
     12 N          68.2703   93.5832    9.4951 N.ar    1  UNL1       -0.2350
     13 C          67.4829   94.8589    9.5447 C.ar    1  UNL1        0.1343
     14 S          66.1823   94.5744   10.2357 S.2     1  UNL1       -0.0652
     15 C          60.8136   88.1385   10.9693 C.3     1  UNL1        0.0474
     16 C          60.2173   88.1085    9.5932 C.ar    1  UNL1       -0.0205
     17 C          60.1862   89.3568    8.7620 C.ar    1  UNL1       -0.0042
     18 C          59.5899   89.3268    7.3860 C.ar    1  UNL1       -0.0003
     19 C          59.0247   88.0487    6.8411 C.ar    1  UNL1       -0.0000
     20 C          59.0557   86.8005    7.6723 C.ar    1  UNL1       -0.0003
     21 C          59.6521   86.8304    9.0484 C.ar    1  UNL1       -0.0042
     22 C          62.0724   85.2065   13.4599 C.3     1  UNL1        0.0924
     23 C          63.1761   85.1057   14.4707 C.3     1  UNL1        0.0950
     24 N          63.6014   86.3208   15.2405 N.am    1  UNL1       -0.2706
     25 C          62.8494   86.7295   16.4724 C.2     1  UNL1        0.4020
     26 O          61.6721   85.9230   16.9345 O.2     1  UNL1       -0.2264
     27 H          64.3741   86.8502   14.9372 H       1  UNL1        0.1527
     28 O          63.2747   87.9446   17.2421 O.3     1  UNL1       -0.4274
     29 C          62.8536   89.3089   16.7826 C.3     1  UNL1        0.2621
     30 C          63.7975   90.1545   15.9801 C.ar    1  UNL1        0.1323
     31 N          64.0524   91.6197   16.1758 N.ar    1  UNL1       -0.2374
     32 C          65.0647   92.0542   15.1577 C.ar    1  UNL1        0.1062
     33 C          65.4354   90.8574   14.3328 C.ar    1  UNL1        0.0573
     34 S          64.6523   89.6834   14.8411 S.2     1  UNL1       -0.0666
     35 C          63.8546   83.7897   14.7117 C.3     1  UNL1        0.0474
     36 C          63.2764   82.5313   14.1355 C.ar    1  UNL1       -0.0205
     37 C          61.9705   82.0018   14.6499 C.ar    1  UNL1       -0.0042
     38 C          61.3924   80.7433   14.0737 C.ar    1  UNL1       -0.0003
     39 C          62.1200   80.0143   12.9833 C.ar    1  UNL1       -0.0000
     40 C          63.4258   80.5437   12.4690 C.ar    1  UNL1       -0.0003
     41 C          64.0040   81.8023   13.0451 C.ar    1  UNL1       -0.0042
     42 C          62.0040   84.9511   10.8754 C.3     1  UNL1        0.0721
     43 C          63.0721   85.5425    8.5820 C.3     1  UNL1        0.0014
     44 C          63.0393   84.6965    9.8202 C.3     1  UNL1        0.0160
     45 C          64.0417   83.5958   10.0032 C.3     1  UNL1        0.0014
@<TRIPOS>BOND
     1    43    44    1
     2    44    45    1
     3    44    42    1
     4    42     1    1
     5     1    22    1
     6    23    22    1
     7    23    35    1
     8    35    36    1
     9    36    37   ar
    10    37    38   ar
    11    38    39   ar
    12    39    40   ar
    13    40    41   ar
    14    23    24    1
    15    24    25   am
    16    25    26    2
    17    25    28    1
    18    28    29    1
    19    29    30    1
    20    30    31   ar
    21    31    32   ar
    22    32    33   ar
    23    33    34   ar
    24     1     2    1
    25     3     2    1
    26     3    15    1
    27    15    16    1
    28    16    17   ar
    29    17    18   ar
    30    18    19   ar
    31    19    20   ar
    32    20    21   ar
    33     3     4    1
    34     4     5   am
    35     5     6    2
    36     5     8    1
    37     8     9    1
    38     9    10    1
    39    10    11   ar
    40    11    12   ar
    41    12    13   ar
    42    13    14   ar
    43    41    36   ar
    44    34    30   ar
    45    21    16   ar
    46    14    10   ar
    47    24    27    1
    48     4     7    1
@<TRIPOS>MOLECULE
*****
 45 48 0 0 0
SMALL
GASTEIGER

@<TRIPOS>ATOM
      1 N          62.6174   90.1066   11.0010 N.3     1  UNL1       -0.2699
      2 C          62.9474   88.7260   10.5164 C.3     1  UNL1        0.0924
      3 C          62.4411   87.5279   11.2635 C.3     1  UNL1        0.0950
      4 N          63.0802   87.1275   12.5602 N.am    1  UNL1       -0.2706
      5 C          63.4150   85.6883   12.8183 C.2     1  UNL1        0.4020
      6 O          63.1108   84.6496   11.7798 O.2     1  UNL1       -0.2264
      7 H          63.2798   87.8092   13.2418 H       1  UNL1        0.1527
      8 O          64.0541   85.2879   14.1150 O.3     1  UNL1       -0.4291
      9 C          64.5587   83.8877   14.3015 C.3     1  UNL1        0.2447
     10 C          63.6305   82.7246   14.1130 C.ar    1  UNL1        0.0714
     11 C          63.9490   81.4510   13.3875 C.ar    1  UNL1        0.1053
     12 N          62.7362   80.5701   13.4430 N.ar    1  UNL1       -0.2350
     13 C          61.6681   81.2993   14.2027 C.ar    1  UNL1        0.1343
     14 S          62.2207   82.6309   14.6169 S.2     1  UNL1       -0.0652
     15 C          61.2957   86.7302   10.7141 C.3     1  UNL1        0.0474
     16 C          61.3823   86.1451    9.3356 C.ar    1  UNL1       -0.0205
     17 C          60.1839   86.1698    8.4337 C.ar    1  UNL1       -0.0042
     18 C          60.2704   85.5847    7.0553 C.ar    1  UNL1       -0.0003
     19 C          61.5553   84.9748    6.5787 C.ar    1  UNL1       -0.0000
     20 C          62.7536   84.9501    7.4805 C.ar    1  UNL1       -0.0003
     21 C          62.6671   85.5352    8.8590 C.ar    1  UNL1       -0.0042
     22 C          63.5162   91.2571   10.6568 C.3     1  UNL1        0.0924
     23 C          64.5454   91.7257   11.6422 C.3     1  UNL1        0.0950
     24 N          64.1497   92.0141   13.0600 N.am    1  UNL1       -0.2706
     25 C          64.1370   90.9094   14.0747 C.2     1  UNL1        0.4020
     26 O          64.5201   89.5164   13.6716 O.2     1  UNL1       -0.2264
     27 H          63.8982   92.9284   13.3246 H       1  UNL1        0.1527
     28 O          63.7413   91.1978   15.4925 O.3     1  UNL1       -0.4274
     29 C          64.6677   91.9652   16.3885 C.3     1  UNL1        0.2621
     30 C          65.9136   92.5834   15.8264 C.ar    1  UNL1        0.1323
     31 N          65.9775   93.5623   14.6917 N.ar    1  UNL1       -0.2374
     32 C          67.4176   93.9151   14.4644 C.ar    1  UNL1        0.1062
     33 C          68.2437   93.1541   15.4587 C.ar    1  UNL1        0.0573
     34 S          67.3142   92.3311   16.3004 S.2     1  UNL1       -0.0666
     35 C          65.9705   91.9059   11.2098 C.3     1  UNL1        0.0474
     36 C          66.4118   93.2052   10.6040 C.ar    1  UNL1       -0.0205
     37 C          65.7873   94.4928   11.0535 C.ar    1  UNL1       -0.0042
     38 C          66.2286   95.7921   10.4476 C.ar    1  UNL1       -0.0003
     39 C          67.2945   95.8038    9.3923 C.ar    1  UNL1       -0.0000
     40 C          67.9190   94.5162    8.9428 C.ar    1  UNL1       -0.0003
     41 C          67.4777   93.2168    9.5487 C.ar    1  UNL1       -0.0042
     42 C          61.3886   90.3369   11.8298 C.3     1  UNL1        0.0721
     43 C          58.9706   89.4786   12.2381 C.3     1  UNL1        0.0014
     44 C          60.0412   89.9473   11.2979 C.3     1  UNL1        0.0160
     45 C          59.7646   90.0264    9.8257 C.3     1  UNL1        0.0014
@<TRIPOS>BOND
     1    43    44    1
     2    44    45    1
     3    44    42    1
     4    42     1    1
     5     1    22    1
     6    23    22    1
     7    23    35    1
     8    35    36    1
     9    36    37   ar
    10    37    38   ar
    11    38    39   ar
    12    39    40   ar
    13    40    41   ar
    14    23    24    1
    15    24    25   am
    16    25    26    2
    17    25    28    1
    18    28    29    1
    19    29    30    1
    20    30    31   ar
    21    31    32   ar
    22    32    33   ar
    23    33    34   ar
    24     1     2    1
    25     3     2    1
    26     3    15    1
    27    15    16    1
    28    16    17   ar
    29    17    18   ar
    30    18    19   ar
    31    19    20   ar
    32    20    21   ar
    33     3     4    1
    34     4     5   am
    35     5     6    2
    36     5     8    1
    37     8     9    1
    38     9    10    1
    39    10    11   ar
    40    11    12   ar
    41    12    13   ar
    42    13    14   ar
    43    41    36   ar
    44    34    30   ar
    45    21    16   ar
    46    14    10   ar
    47    24    27    1
    48     4     7    1
@<TRIPOS>MOLECULE
*****
 45 48 0 0 0
SMALL
GASTEIGER

@<TRIPOS>ATOM
      1 N          62.2690   89.1989   11.9729 N.3     1  UNL1       -0.2699
      2 C          61.4820   87.9233   12.0310 C.3     1  UNL1        0.0924
      3 C          61.7179   86.8493   11.0109 C.3     1  UNL1        0.0950
      4 N          62.8818   85.9150   11.1608 N.am    1  UNL1       -0.2706
      5 C          62.9733   85.0172   12.3589 C.2     1  UNL1        0.4020
      6 O          61.9010   85.0537   13.4071 O.2     1  UNL1       -0.2264
      7 H          63.5856   85.8911   10.4728 H       1  UNL1        0.1527
      8 O          64.1372   84.0830   12.5089 O.3     1  UNL1       -0.4291
      9 C          64.1552   83.0802   13.6242 C.3     1  UNL1        0.2447
     10 C          63.1736   81.9459   13.6289 C.ar    1  UNL1        0.0714
     11 C          63.3206   80.6497   12.8886 C.ar    1  UNL1        0.1053
     12 N          62.1106   79.8114   13.1769 N.ar    1  UNL1       -0.2350
     13 C          61.2158   80.5895   14.0954 C.ar    1  UNL1        0.1343
     14 S          61.8727   81.9088   14.3749 S.2     1  UNL1       -0.0652
     15 C          60.7899   86.7095    9.8406 C.3     1  UNL1        0.0474
     16 C          61.2337   85.9655    8.6161 C.ar    1  UNL1       -0.0205
     17 C          62.6709   85.5643    8.4621 C.ar    1  UNL1       -0.0042
     18 C          63.1147   84.8203    7.2376 C.ar    1  UNL1       -0.0003
     19 C          62.1215   84.4775    6.1671 C.ar    1  UNL1       -0.0000
     20 C          60.6844   84.8787    6.3211 C.ar    1  UNL1       -0.0003
     21 C          60.2405   85.6228    7.5456 C.ar    1  UNL1       -0.0042
     22 C          63.6232   89.2746   12.6135 C.3     1  UNL1        0.0924
     23 C          63.9213   90.3534   13.6120 C.3     1  UNL1        0.0950
     24 N          64.4707   91.6709   13.1512 N.am    1  UNL1       -0.2706
     25 C          65.8117   92.1354   13.6368 C.2     1  UNL1        0.4020
     26 O          66.6034   91.2825   14.5832 O.2     1  UNL1       -0.2264
     27 H          63.9511   92.2307   12.5301 H       1  UNL1        0.1527
     28 O          66.3611   93.4529   13.1760 O.3     1  UNL1       -0.4274
     29 C          66.0209   93.9709   11.8100 C.3     1  UNL1        0.2621
     30 C          66.9206   93.6696   10.6481 C.ar    1  UNL1        0.1323
     31 N          67.8455   92.4945   10.5307 N.ar    1  UNL1       -0.2374
     32 C          68.5498   92.5891    9.2098 C.ar    1  UNL1        0.1062
     33 C          68.0601   93.8226    8.5107 C.ar    1  UNL1        0.0573
     34 S          67.0532   94.4904    9.3997 S.2     1  UNL1       -0.0666
     35 C          63.6700   90.1148   15.0715 C.3     1  UNL1        0.0474
     36 C          63.6493   88.7149   15.6099 C.ar    1  UNL1       -0.0205
     37 C          64.3912   87.6251   14.8943 C.ar    1  UNL1       -0.0042
     38 C          64.3705   86.2252   15.4326 C.ar    1  UNL1       -0.0003
     39 C          63.6080   85.9151   16.6866 C.ar    1  UNL1       -0.0000
     40 C          62.8663   87.0048   17.4023 C.ar    1  UNL1       -0.0003
     41 C          62.8869   88.4048   16.8639 C.ar    1  UNL1       -0.0042
     42 C          61.7018   90.3989   11.2741 C.3     1  UNL1        0.0721
     43 C          60.0912   89.9034    9.2966 C.3     1  UNL1        0.0014
     44 C          60.3124   90.3517   10.7108 C.3     1  UNL1        0.0160
     45 C          59.1441   90.7529   11.5618 C.3     1  UNL1        0.0014
@<TRIPOS>BOND
     1    43    44    1
     2    44    45    1
     3    44    42    1
     4    42     1    1
     5     1    22    1
     6    23    22    1
     7    23    35    1
     8    35    36    1
     9    36    37   ar
    10    37    38   ar
    11    38    39   ar
    12    39    40   ar
    13    40    41   ar
    14    23    24    1
    15    24    25   am
    16    25    26    2
    17    25    28    1
    18    28    29    1
    19    29    30    1
    20    30    31   ar
    21    31    32   ar
    22    32    33   ar
    23    33    34   ar
    24     1     2    1
    25     3     2    1
    26     3    15    1
    27    15    16    1
    28    16    17   ar
    29    17    18   ar
    30    18    19   ar
    31    19    20   ar
    32    20    21   ar
    33     3     4    1
    34     4     5   am
    35     5     6    2
    36     5     8    1
    37     8     9    1
    38     9    10    1
    39    10    11   ar
    40    11    12   ar
    41    12    13   ar
    42    13    14   ar
    43    41    36   ar
    44    34    30   ar
    45    21    16   ar
    46    14    10   ar
    47    24    27    1
    48     4     7    1
@<TRIPOS>MOLECULE
*****
 45 48 0 0 0
SMALL
GASTEIGER

@<TRIPOS>ATOM
      1 N          62.4229   88.3914   12.2072 N.3     1  UNL1       -0.2699
      2 C          62.2563   87.0660   11.5250 C.3     1  UNL1        0.0924
      3 C          62.1102   87.0033   10.0334 C.3     1  UNL1        0.0950
      4 N          61.5850   88.1898    9.2808 N.am    1  UNL1       -0.2706
      5 C          60.2021   88.1579    8.7008 C.2     1  UNL1        0.4020
      6 O          59.3443   86.9396    8.8735 O.2     1  UNL1       -0.2264
      7 H          62.1480   88.9894    9.1675 H       1  UNL1        0.1527
      8 O          59.6769   89.3444    7.9482 O.3     1  UNL1       -0.4291
      9 C          59.2190   89.1892    6.5282 C.3     1  UNL1        0.2447
     10 C          59.0444   90.3998    5.6599 C.ar    1  UNL1        0.0714
     11 C          57.7455   91.0838    5.3518 C.ar    1  UNL1        0.1053
     12 N          58.0362   92.2457    4.4487 N.ar    1  UNL1       -0.2350
     13 C          59.5148   92.2797    4.1987 C.ar    1  UNL1        0.1343
     14 S          60.1380   91.1389    4.9473 S.2     1  UNL1       -0.0652
     15 C          62.4893   85.7542    9.2945 C.3     1  UNL1        0.0474
     16 C          62.9100   84.5315   10.0547 C.ar    1  UNL1       -0.0205
     17 C          64.0786   83.7190    9.5812 C.ar    1  UNL1       -0.0042
     18 C          64.4993   82.4963   10.3414 C.ar    1  UNL1       -0.0003
     19 C          63.7513   82.0860   11.5752 C.ar    1  UNL1       -0.0000
     20 C          62.5827   82.8984   12.0487 C.ar    1  UNL1       -0.0003
     21 C          62.1620   84.1212   11.2885 C.ar    1  UNL1       -0.0042
     22 C          63.7901   88.8641   12.6039 C.3     1  UNL1        0.0924
     23 C          64.0056   89.4919   13.9490 C.3     1  UNL1        0.0950
     24 N          64.0881   88.6305   15.1742 N.am    1  UNL1       -0.2706
     25 C          62.9787   88.6538   16.1835 C.2     1  UNL1        0.4020
     26 O          61.7868   89.5386   15.9677 O.2     1  UNL1       -0.2264
     27 H          64.8704   88.0498   15.3159 H       1  UNL1        0.1527
     28 O          63.0612   87.7924   17.4087 O.3     1  UNL1       -0.4274
     29 C          62.6241   86.3587   17.3483 C.3     1  UNL1        0.2621
     30 C          63.2422   85.4277   16.3476 C.ar    1  UNL1        0.1323
     31 N          64.4646   85.7045   15.5234 N.ar    1  UNL1       -0.2374
     32 C          64.7242   84.5045   14.6618 C.ar    1  UNL1        0.1062
     33 C          63.6623   83.4860   14.9535 C.ar    1  UNL1        0.0573
     34 S          62.7464   84.0566   15.9954 S.2     1  UNL1       -0.0666
     35 C          64.1387   90.9812   14.0690 C.3     1  UNL1        0.0474
     36 C          65.4489   91.5867   14.4773 C.ar    1  UNL1       -0.0205
     37 C          65.5998   92.2010   15.8374 C.ar    1  UNL1       -0.0042
     38 C          66.9099   92.8065   16.2457 C.ar    1  UNL1       -0.0003
     39 C          68.0693   92.7977   15.2940 C.ar    1  UNL1       -0.0000
     40 C          67.9184   92.1834   13.9339 C.ar    1  UNL1       -0.0003
     41 C          66.6082   91.5779   13.5255 C.ar    1  UNL1       -0.0042
     42 C          61.2224   89.2441   12.4928 C.3     1  UNL1        0.0721
     43 C          59.4209   90.7591   11.3932 C.3     1  UNL1        0.0014
     44 C          60.8574   90.3617   11.5612 C.3     1  UNL1        0.0160
     45 C          61.9291   91.0817   10.7975 C.3     1  UNL1        0.0014
@<TRIPOS>BOND
     1    43    44    1
     2    44    45    1
     3    44    42    1
     4    42     1    1
     5     1    22    1
     6    23    22    1
     7    23    35    1
     8    35    36    1
     9    36    37   ar
    10    37    38   ar
    11    38    39   ar
    12    39    40   ar
    13    40    41   ar
    14    23    24    1
    15    24    25   am
    16    25    26    2
    17    25    28    1
    18    28    29    1
    19    29    30    1
    20    30    31   ar
    21    31    32   ar
    22    32    33   ar
    23    33    34   ar
    24     1     2    1
    25     3     2    1
    26     3    15    1
    27    15    16    1
    28    16    17   ar
    29    17    18   ar
    30    18    19   ar
    31    19    20   ar
    32    20    21   ar
    33     3     4    1
    34     4     5   am
    35     5     6    2
    36     5     8    1
    37     8     9    1
    38     9    10    1
    39    10    11   ar
    40    11    12   ar
    41    12    13   ar
    42    13    14   ar
    43    41    36   ar
    44    34    30   ar
    45    21    16   ar
    46    14    10   ar
    47    24    27    1
    48     4     7    1
@<TRIPOS>MOLECULE
*****
 45 48 0 0 0
SMALL
GASTEIGER

@<TRIPOS>ATOM
      1 N          62.4534   86.3822   11.6096 N.3     1  UNL1       -0.2699
      2 C          62.8880   87.6495   10.9350 C.3     1  UNL1        0.0924
      3 C          62.2252   88.9494   11.2825 C.3     1  UNL1        0.0950
      4 N          63.0217   90.0519   11.9150 N.am    1  UNL1       -0.2706
      5 C          63.4771   91.2177   11.0882 C.2     1  UNL1        0.4020
      6 O          63.1361   91.2809    9.6289 O.2     1  UNL1       -0.2264
      7 H          63.2455   90.0104   12.8728 H       1  UNL1        0.1527
      8 O          64.2736   92.3202   11.7208 O.3     1  UNL1       -0.4291
      9 C          65.7355   92.4597   11.4153 C.3     1  UNL1        0.2447
     10 C          66.2607   93.7366   10.8291 C.ar    1  UNL1        0.0714
     11 C          66.1000   95.1078   11.4157 C.ar    1  UNL1        0.1053
     12 N          66.7787   96.0851   10.5024 N.ar    1  UNL1       -0.2350
     13 C          67.3589   95.3180    9.3513 C.ar    1  UNL1        0.1343
     14 S          67.0387   93.8665    9.5531 S.2     1  UNL1       -0.0652
     15 C          60.7658   89.1469   10.9973 C.3     1  UNL1        0.0474
     16 C          60.1879   88.6881    9.6914 C.ar    1  UNL1       -0.0205
     17 C          60.1478   89.6232    8.5192 C.ar    1  UNL1       -0.0042
     18 C          59.5699   89.1644    7.2132 C.ar    1  UNL1       -0.0003
     19 C          59.0323   87.7704    7.0794 C.ar    1  UNL1       -0.0000
     20 C          59.0724   86.8354    8.2516 C.ar    1  UNL1       -0.0003
     21 C          59.6503   87.2942    9.5576 C.ar    1  UNL1       -0.0042
     22 C          62.3965   86.3109   13.1068 C.3     1  UNL1        0.0924
     23 C          63.6529   86.4583   13.9130 C.3     1  UNL1        0.0950
     24 N          64.2466   87.8178   14.1345 N.am    1  UNL1       -0.2706
     25 C          63.8424   88.6268   15.3312 C.2     1  UNL1        0.4020
     26 O          62.8445   88.0763   16.3064 O.2     1  UNL1       -0.2264
     27 H          64.9017   88.1791   13.4945 H       1  UNL1        0.1527
     28 O          64.4362   89.9863   15.5528 O.3     1  UNL1       -0.4274
     29 C          65.2839   90.6171   14.4881 C.3     1  UNL1        0.2621
     30 C          66.4025   91.5409   14.8695 C.ar    1  UNL1        0.1323
     31 N          67.7730   91.5646   14.2601 N.ar    1  UNL1       -0.2374
     32 C          68.5645   92.6415   14.9411 C.ar    1  UNL1        0.1062
     33 C          67.6832   93.2834   15.9713 C.ar    1  UNL1        0.0573
     34 S          66.3470   92.6032   15.9270 S.2     1  UNL1       -0.0666
     35 C          64.3154   85.2461   14.4976 C.3     1  UNL1        0.0474
     36 C          63.8003   83.8768   14.1665 C.ar    1  UNL1       -0.0205
     37 C          64.5191   83.0283   13.1597 C.ar    1  UNL1       -0.0042
     38 C          64.0040   81.6590   12.8286 C.ar    1  UNL1       -0.0003
     39 C          62.7702   81.1381   13.5042 C.ar    1  UNL1       -0.0000
     40 C          62.0515   81.9866   14.5109 C.ar    1  UNL1       -0.0003
     41 C          62.5665   83.3560   14.8421 C.ar    1  UNL1       -0.0042
     42 C          62.0758   85.1861   10.7869 C.3     1  UNL1        0.0721
     43 C          62.7674   85.4911    8.3012 C.3     1  UNL1        0.0014
     44 C          62.9217   84.7843    9.6152 C.3     1  UNL1        0.0160
     45 C          63.9220   83.6756    9.7575 C.3     1  UNL1        0.0014
@<TRIPOS>BOND
     1    43    44    1
     2    44    45    1
     3    44    42    1
     4    42     1    1
     5     1    22    1
     6    23    22    1
     7    23    35    1
     8    35    36    1
     9    36    37   ar
    10    37    38   ar
    11    38    39   ar
    12    39    40   ar
    13    40    41   ar
    14    23    24    1
    15    24    25   am
    16    25    26    2
    17    25    28    1
    18    28    29    1
    19    29    30    1
    20    30    31   ar
    21    31    32   ar
    22    32    33   ar
    23    33    34   ar
    24     1     2    1
    25     3     2    1
    26     3    15    1
    27    15    16    1
    28    16    17   ar
    29    17    18   ar
    30    18    19   ar
    31    19    20   ar
    32    20    21   ar
    33     3     4    1
    34     4     5   am
    35     5     6    2
    36     5     8    1
    37     8     9    1
    38     9    10    1
    39    10    11   ar
    40    11    12   ar
    41    12    13   ar
    42    13    14   ar
    43    41    36   ar
    44    34    30   ar
    45    21    16   ar
    46    14    10   ar
    47    24    27    1
    48     4     7    1
@<TRIPOS>MOLECULE
*****
 45 48 0 0 0
SMALL
GASTEIGER

@<TRIPOS>ATOM
      1 N          61.9583   89.5616   12.2186 N.3     1  UNL1       -0.2699
      2 C          62.5396   88.5271   11.3011 C.3     1  UNL1        0.0924
      3 C          61.8439   87.2110   11.1180 C.3     1  UNL1        0.0950
      4 N          62.5843   85.9303   11.3663 N.am    1  UNL1       -0.2706
      5 C          62.9824   85.0583   10.2126 C.2     1  UNL1        0.4020
      6 O          62.6402   85.4671    8.8106 O.2     1  UNL1       -0.2264
      7 H          62.8089   85.6620   12.2866 H       1  UNL1        0.1527
      8 O          63.7228   83.7777   10.4609 O.3     1  UNL1       -0.4291
      9 C          63.1158   82.7168   11.3304 C.3     1  UNL1        0.2447
     10 C          63.2445   82.8054   12.8222 C.ar    1  UNL1        0.0714
     11 C          62.3009   82.2112   13.8255 C.ar    1  UNL1        0.1053
     12 N          62.8127   82.5423   15.1961 N.ar    1  UNL1       -0.2350
     13 C          64.0726   83.3411   15.0399 C.ar    1  UNL1        0.1343
     14 S          64.3396   83.5038   13.5728 S.2     1  UNL1       -0.0652
     15 C          60.4076   87.1754   10.6867 C.3     1  UNL1        0.0474
     16 C          60.0154   87.7085    9.3406 C.ar    1  UNL1       -0.0205
     17 C          60.2975   89.1393    8.9892 C.ar    1  UNL1       -0.0042
     18 C          59.9053   89.6723    7.6431 C.ar    1  UNL1       -0.0003
     19 C          59.2310   88.7746    6.6483 C.ar    1  UNL1       -0.0000
     20 C          58.9490   87.3439    6.9996 C.ar    1  UNL1       -0.0003
     21 C          59.3412   86.8108    8.3458 C.ar    1  UNL1       -0.0042
     22 C          62.6161   90.9033   12.3488 C.3     1  UNL1        0.0924
     23 C          63.9331   91.0275   13.0560 C.3     1  UNL1        0.0950
     24 N          65.1812   91.3084   12.2731 N.am    1  UNL1       -0.2706
     25 C          66.0787   92.4417   12.6735 C.2     1  UNL1        0.4020
     26 O          65.7280   93.2939   13.8570 O.2     1  UNL1       -0.2264
     27 H          65.4115   90.7491   11.4963 H       1  UNL1        0.1527
     28 O          67.3269   92.7226   11.8906 O.3     1  UNL1       -0.4274
     29 C          67.2541   92.9063   10.4037 C.3     1  UNL1        0.2621
     30 C          67.1450   94.2850    9.8227 C.ar    1  UNL1        0.1323
     31 N          67.5171   94.6851    8.4257 N.ar    1  UNL1       -0.2374
     32 C          67.2467   96.1529    8.2763 C.ar    1  UNL1        0.1062
     33 C          66.7075   96.6600    9.5811 C.ar    1  UNL1        0.0573
     34 S          66.6447   95.5056   10.5367 S.2     1  UNL1       -0.0666
     35 C          64.0018   90.8706   14.5463 C.3     1  UNL1        0.0474
     36 C          63.8543   89.5122   15.1650 C.ar    1  UNL1       -0.0205
     37 C          63.1510   89.3599   16.4812 C.ar    1  UNL1       -0.0042
     38 C          63.0035   88.0015   17.1000 C.ar    1  UNL1       -0.0003
     39 C          63.5593   86.7954   16.4027 C.ar    1  UNL1       -0.0000
     40 C          64.2626   86.9476   15.0866 C.ar    1  UNL1       -0.0003
     41 C          64.4101   88.3061   14.4677 C.ar    1  UNL1       -0.0042
     42 C          60.7191   89.2544   13.0059 C.3     1  UNL1        0.0721
     43 C          59.2585   90.8235   11.5380 C.3     1  UNL1        0.0014
     44 C          59.3750   89.6602   12.4778 C.3     1  UNL1        0.0160
     45 C          58.1475   88.9028   12.8895 C.3     1  UNL1        0.0014
@<TRIPOS>BOND
     1    43    44    1
     2    44    45    1
     3    44    42    1
     4    42     1    1
     5     1    22    1
     6    23    22    1
     7    23    35    1
     8    35    36    1
     9    36    37   ar
    10    37    38   ar
    11    38    39   ar
    12    39    40   ar
    13    40    41   ar
    14    23    24    1
    15    24    25   am
    16    25    26    2
    17    25    28    1
    18    28    29    1
    19    29    30    1
    20    30    31   ar
    21    31    32   ar
    22    32    33   ar
    23    33    34   ar
    24     1     2    1
    25     3     2    1
    26     3    15    1
    27    15    16    1
    28    16    17   ar
    29    17    18   ar
    30    18    19   ar
    31    19    20   ar
    32    20    21   ar
    33     3     4    1
    34     4     5   am
    35     5     6    2
    36     5     8    1
    37     8     9    1
    38     9    10    1
    39    10    11   ar
    40    11    12   ar
    41    12    13   ar
    42    13    14   ar
    43    41    36   ar
    44    34    30   ar
    45    21    16   ar
    46    14    10   ar
    47    24    27    1
    48     4     7    1
@<TRIPOS>MOLECULE
*****
 45 48 0 0 0
SMALL
GASTEIGER

@<TRIPOS>ATOM
      1 N          63.5806   88.4016   13.2690 N.3     1  UNL1       -0.2699
      2 C          63.2313   88.0351   11.8570 C.3     1  UNL1        0.0924
      3 C          62.2431   86.9388   11.5893 C.3     1  UNL1        0.0950
      4 N          62.6993   85.5103   11.5532 N.am    1  UNL1       -0.2706
      5 C          63.0614   84.8714   10.2453 C.2     1  UNL1        0.4020
      6 O          62.9673   85.6610    8.9735 O.2     1  UNL1       -0.2264
      7 H          62.7610   84.9920   12.3880 H       1  UNL1        0.1527
      8 O          63.5175   83.4429   10.2093 O.3     1  UNL1       -0.4291
      9 C          64.2950   82.8746   11.3592 C.3     1  UNL1        0.2447
     10 C          63.5856   82.4709   12.6177 C.ar    1  UNL1        0.0714
     11 C          63.9243   82.9270   14.0059 C.ar    1  UNL1        0.1053
     12 N          62.9609   82.2782   14.9551 N.ar    1  UNL1       -0.2350
     13 C          62.0268   81.4210   14.1534 C.ar    1  UNL1        0.1343
     14 S          62.4128   81.5400   12.7088 S.2     1  UNL1       -0.0652
     15 C          60.7988   87.2710   11.3577 C.3     1  UNL1        0.0474
     16 C          60.3331   87.6807    9.9919 C.ar    1  UNL1       -0.0205
     17 C          59.7671   86.6562    9.0538 C.ar    1  UNL1       -0.0042
     18 C          59.3015   87.0659    7.6881 C.ar    1  UNL1       -0.0003
     19 C          59.4018   88.5001    7.2604 C.ar    1  UNL1       -0.0000
     20 C          59.9678   89.5246    8.1984 C.ar    1  UNL1       -0.0003
     21 C          60.4335   89.1149    9.5642 C.ar    1  UNL1       -0.0042
     22 C          63.2954   89.7835   13.7776 C.3     1  UNL1        0.0924
     23 C          64.3922   90.8055   13.8280 C.3     1  UNL1        0.0950
     24 N          64.9204   91.4020   12.5571 N.am    1  UNL1       -0.2706
     25 C          63.9968   91.6388   11.3991 C.2     1  UNL1        0.4020
     26 O          62.5450   91.2792   11.5120 O.2     1  UNL1       -0.2264
     27 H          65.8733   91.6380   12.4830 H       1  UNL1        0.1527
     28 O          64.5250   92.2353   10.1283 O.3     1  UNL1       -0.4274
     29 C          65.9513   92.6932   10.0508 C.3     1  UNL1        0.2621
     30 C          66.2760   94.1547   10.1447 C.ar    1  UNL1        0.1323
     31 N          65.9716   95.0525   11.3072 N.ar    1  UNL1       -0.2374
     32 C          66.4695   96.4276   10.9736 C.ar    1  UNL1        0.1062
     33 C          67.0815   96.3796    9.6049 C.ar    1  UNL1        0.0573
     34 S          66.9619   94.9749    9.0927 S.2     1  UNL1       -0.0666
     35 C          64.9608   91.2310   15.1492 C.3     1  UNL1        0.0474
     36 C          66.3342   91.8304   15.2166 C.ar    1  UNL1       -0.0205
     37 C          67.3675   91.4545   14.1963 C.ar    1  UNL1       -0.0042
     38 C          68.7409   92.0539   14.2637 C.ar    1  UNL1       -0.0003
     39 C          69.0810   93.0292   15.3514 C.ar    1  UNL1       -0.0000
     40 C          68.0477   93.4051   16.3717 C.ar    1  UNL1       -0.0003
     41 C          66.6743   92.8057   16.3043 C.ar    1  UNL1       -0.0042
     42 C          64.2152   87.3861   14.1723 C.3     1  UNL1        0.0721
     43 C          63.3052   88.4089   16.3804 C.3     1  UNL1        0.0014
     44 C          63.7119   87.2110   15.5745 C.3     1  UNL1        0.0160
     45 C          63.6154   85.8380   16.1708 C.3     1  UNL1        0.0014
@<TRIPOS>BOND
     1    43    44    1
     2    44    45    1
     3    44    42    1
     4    42     1    1
     5     1    22    1
     6    23    22    1
     7    23    35    1
     8    35    36    1
     9    36    37   ar
    10    37    38   ar
    11    38    39   ar
    12    39    40   ar
    13    40    41   ar
    14    23    24    1
    15    24    25   am
    16    25    26    2
    17    25    28    1
    18    28    29    1
    19    29    30    1
    20    30    31   ar
    21    31    32   ar
    22    32    33   ar
    23    33    34   ar
    24     1     2    1
    25     3     2    1
    26     3    15    1
    27    15    16    1
    28    16    17   ar
    29    17    18   ar
    30    18    19   ar
    31    19    20   ar
    32    20    21   ar
    33     3     4    1
    34     4     5   am
    35     5     6    2
    36     5     8    1
    37     8     9    1
    38     9    10    1
    39    10    11   ar
    40    11    12   ar
    41    12    13   ar
    42    13    14   ar
    43    41    36   ar
    44    34    30   ar
    45    21    16   ar
    46    14    10   ar
    47    24    27    1
    48     4     7    1
