@<TRIPOS>MOLECULE
*****
 30 32 0 0 0
SMALL
GASTEIGER

@<TRIPOS>ATOM
      1 C          61.4526   89.1713   10.4433 C.3     1  UNL1        0.1812
      2 O          62.6666   88.4315    9.9648 O.3     1  UNL1       -0.3784
      3 H          62.5472   87.4811   10.1176 H       1  UNL1        0.2106
      4 C          60.2386   89.9110   10.9219 C.3     1  UNL1        0.4197
      5 F          59.0246   90.6508   11.4005 F       1  UNL1       -0.1676
      6 F          59.8574   90.2045    9.5011 F       1  UNL1       -0.1676
      7 F          60.6198   89.6175   12.3426 F       1  UNL1       -0.1676
      8 C          60.8275   87.8739   10.8632 C.3     1  UNL1        0.0398
      9 C          61.6470   86.6176   10.8809 C.3     1  UNL1        0.0212
     10 C          62.5336   87.2108   11.9354 C.3     1  UNL1        0.0044
     11 C          60.7603   86.0245    9.8264 C.3     1  UNL1        0.0044
     12 C          62.9175   85.6199    8.3530 C.3     1  UNL1        0.0307
     13 C          63.1016   84.8625    9.6346 C.ar    1  UNL1       -0.0257
     14 C          63.9211   83.6062    9.6522 C.ar    1  UNL1       -0.0023
     15 C          64.1053   82.8488   10.9338 C.ar    1  UNL1        0.0293
     16 C          63.4700   83.3477   12.1978 C.ar    1  UNL1        0.1398
     17 F          63.6542   82.5904   13.4793 F       1  UNL1       -0.2042
     18 C          62.6506   84.6040   12.1802 C.ar    1  UNL1        0.0250
     19 C          62.4664   85.3614   10.8985 C.ar    1  UNL1       -0.0244
     20 C          62.0776   90.4686   10.0235 C.3     1  UNL1        0.0811
     21 C          63.1888   91.0635   10.8366 C.2     1  UNL1        0.0613
     22 C          63.4343   90.8307   12.2980 C.2     1  UNL1        0.0157
     23 C          64.6469   91.6190   12.6957 C.2     1  UNL1        0.0142
     24 C          65.3572   91.7742   14.0077 C.2     1  UNL1       -0.0019
     25 C          64.8532   91.0543   15.2233 C.3     1  UNL1        0.0327
     26 C          66.5717   92.6494   14.1041 C.2     1  UNL1        0.0893
     27 N          67.0757   93.3693   12.8885 N.2     1  UNL1       -0.2628
     28 C          66.3654   93.2140   11.5766 C.3     1  UNL1        0.1708
     29 C          65.1510   92.3389   11.4801 C.2     1  UNL1        0.0829
     30 N          64.2499   91.9956   10.3311 N.2     1  UNL1       -0.2519
@<TRIPOS>BOND
     1    12    13    1
     2    13    14   ar
     3    14    15   ar
     4    15    16   ar
     5    16    17    1
     6    16    18   ar
     7    18    19   ar
     8    19     9    1
     9     9    10    1
    10     9    11    1
    11     9     8    1
    12     8     1    1
    13     1     2    1
    14     1    20    1
    15    20    21    1
    16    21    22    2
    17    22    23    1
    18    23    24    2
    19    24    25    1
    20    24    26    1
    21    26    27    2
    22    27    28    1
    23    28    29    1
    24    29    30    2
    25     1     4    1
    26     4     5    1
    27     4     6    1
    28     4     7    1
    29    19    13   ar
    30    30    21    1
    31    29    23    1
    32     2     3    1
@<TRIPOS>MOLECULE
*****
 30 32 0 0 0
SMALL
GASTEIGER

@<TRIPOS>ATOM
      1 C          63.6258   87.1397   16.0542 C.3     1  UNL1        0.1812
      2 O          64.2544   87.2933   14.7010 O.3     1  UNL1       -0.3784
      3 H          64.6224   86.4420   14.4168 H       1  UNL1        0.2106
      4 C          62.9972   86.9860   17.4074 C.3     1  UNL1        0.4197
      5 F          62.3686   86.8323   18.7607 F       1  UNL1       -0.1676
      6 F          62.0676   88.1238   17.1048 F       1  UNL1       -0.1676
      7 F          63.9267   85.8483   17.7099 F       1  UNL1       -0.1676
      8 C          64.0071   85.6889   16.0666 C.3     1  UNL1        0.0398
      9 C          63.6793   84.8172   14.8907 C.3     1  UNL1        0.0212
     10 C          65.1169   84.8524   14.4639 C.3     1  UNL1        0.0044
     11 C          62.2418   84.7820   15.3175 C.3     1  UNL1        0.0044
     12 C          63.0067   86.0593   12.2440 C.3     1  UNL1        0.0307
     13 C          63.0153   84.5665   12.3915 C.ar    1  UNL1       -0.0257
     14 C          62.6875   83.6949   11.2156 C.ar    1  UNL1       -0.0023
     15 C          62.6961   82.2022   11.3630 C.ar    1  UNL1        0.0293
     16 C          63.0324   81.5811   12.6864 C.ar    1  UNL1        0.1398
     17 F          63.0410   80.0884   12.8338 F       1  UNL1       -0.2042
     18 C          63.3602   82.4528   13.8623 C.ar    1  UNL1        0.0250
     19 C          63.3516   83.9456   13.7148 C.ar    1  UNL1       -0.0244
     20 C          63.2445   88.5903   16.0418 C.3     1  UNL1        0.0811
     21 C          63.5957   89.4480   14.8624 C.2     1  UNL1        0.0613
     22 C          64.7132   90.4468   14.8001 C.2     1  UNL1        0.0157
     23 C          64.6992   91.0736   13.4374 C.2     1  UNL1        0.0142
     24 C          65.5664   92.1221   12.8060 C.2     1  UNL1       -0.0019
     25 C          66.6924   92.7334   13.5859 C.3     1  UNL1        0.0327
     26 C          65.3075   92.5592   11.3946 C.2     1  UNL1        0.0893
     27 N          64.1815   91.9479   10.6147 N.2     1  UNL1       -0.2628
     28 C          63.3143   90.8994   11.2462 C.3     1  UNL1        0.1708
     29 C          63.5731   90.4623   12.6575 C.2     1  UNL1        0.0829
     30 N          62.8911   89.4576   13.5382 N.2     1  UNL1       -0.2519
@<TRIPOS>BOND
     1    12    13    1
     2    13    14   ar
     3    14    15   ar
     4    15    16   ar
     5    16    17    1
     6    16    18   ar
     7    18    19   ar
     8    19     9    1
     9     9    10    1
    10     9    11    1
    11     9     8    1
    12     8     1    1
    13     1     2    1
    14     1    20    1
    15    20    21    1
    16    21    22    2
    17    22    23    1
    18    23    24    2
    19    24    25    1
    20    24    26    1
    21    26    27    2
    22    27    28    1
    23    28    29    1
    24    29    30    2
    25     1     4    1
    26     4     5    1
    27     4     6    1
    28     4     7    1
    29    19    13   ar
    30    30    21    1
    31    29    23    1
    32     2     3    1
@<TRIPOS>MOLECULE
*****
 30 32 0 0 0
SMALL
GASTEIGER

@<TRIPOS>ATOM
      1 C          61.5430   89.0877   10.4286 C.3     1  UNL1        0.1812
      2 O          62.7769   88.3416   10.0156 O.3     1  UNL1       -0.3784
      3 H          62.6311   87.3890   10.1266 H       1  UNL1        0.2106
      4 C          60.3091   89.8339   10.8416 C.3     1  UNL1        0.4197
      5 F          59.0751   90.5802   11.2546 F       1  UNL1       -0.1676
      6 F          60.6398   89.5831   12.2831 F       1  UNL1       -0.1676
      7 F          59.9784   90.0848    9.4003 F       1  UNL1       -0.1676
      8 C          60.8675   87.7892   10.7568 C.3     1  UNL1        0.0398
      9 C          61.6664   86.5208   10.8101 C.3     1  UNL1        0.0212
     10 C          60.8394   85.9530    9.6949 C.3     1  UNL1        0.0044
     11 C          62.4933   87.0885   11.9254 C.3     1  UNL1        0.0044
     12 C          63.0474   85.5130    8.3449 C.3     1  UNL1        0.0307
     13 C          63.1558   84.7484    9.6310 C.ar    1  UNL1       -0.0257
     14 C          63.9546   83.4800    9.6843 C.ar    1  UNL1       -0.0023
     15 C          64.0630   82.7154   10.9703 C.ar    1  UNL1        0.0293
     16 C          63.3724   83.2193   12.2029 C.ar    1  UNL1        0.1398
     17 F          63.4808   82.4547   13.4888 F       1  UNL1       -0.2042
     18 C          62.5735   84.4877   12.1495 C.ar    1  UNL1        0.0250
     19 C          62.4652   85.2523   10.8635 C.ar    1  UNL1       -0.0244
     20 C          62.2184   90.3862   10.1005 C.3     1  UNL1        0.0811
     21 C          63.2326   90.9632   11.0431 C.2     1  UNL1        0.0613
     22 C          64.1337   92.1293   10.7630 C.2     1  UNL1        0.0157
     23 C          64.9818   92.3622   11.9781 C.2     1  UNL1        0.0142
     24 C          66.0485   93.3729   12.2789 C.2     1  UNL1       -0.0019
     25 C          66.4253   94.3951   11.2478 C.3     1  UNL1        0.0327
     26 C          66.7384   93.3615   13.6108 C.2     1  UNL1        0.0893
     27 N          66.3616   92.3394   14.6419 N.2     1  UNL1       -0.2628
     28 C          65.2949   91.3286   14.3411 C.3     1  UNL1        0.1708
     29 C          64.6049   91.3400   13.0093 C.2     1  UNL1        0.0829
     30 N          63.5239   90.4754   12.4314 N.2     1  UNL1       -0.2519
@<TRIPOS>BOND
     1    12    13    1
     2    13    14   ar
     3    14    15   ar
     4    15    16   ar
     5    16    17    1
     6    16    18   ar
     7    18    19   ar
     8    19     9    1
     9     9    10    1
    10     9    11    1
    11     9     8    1
    12     8     1    1
    13     1     2    1
    14     1    20    1
    15    20    21    1
    16    21    22    2
    17    22    23    1
    18    23    24    2
    19    24    25    1
    20    24    26    1
    21    26    27    2
    22    27    28    1
    23    28    29    1
    24    29    30    2
    25     1     4    1
    26     4     5    1
    27     4     6    1
    28     4     7    1
    29    19    13   ar
    30    30    21    1
    31    29    23    1
    32     2     3    1
@<TRIPOS>MOLECULE
*****
 30 32 0 0 0
SMALL
GASTEIGER

@<TRIPOS>ATOM
      1 C          61.8965   87.2114   10.5871 C.3     1  UNL1        0.1812
      2 O          63.0787   87.2369   11.5099 O.3     1  UNL1       -0.3784
      3 H          63.6102   86.4365   11.3766 H       1  UNL1        0.2106
      4 C          60.7143   87.1859    9.6642 C.3     1  UNL1        0.4197
      5 F          59.5320   87.1604    8.7413 F       1  UNL1       -0.1676
      6 F          61.5886   86.6733    8.5583 F       1  UNL1       -0.1676
      7 F          59.8400   87.6985   10.7700 F       1  UNL1       -0.1676
      8 C          62.3504   85.8896   10.0420 C.3     1  UNL1        0.0398
      9 C          62.6536   84.7569   10.9774 C.3     1  UNL1        0.0212
     10 C          61.6258   85.2758   11.9389 C.3     1  UNL1        0.0044
     11 C          63.6814   84.2381   10.0160 C.3     1  UNL1        0.0044
     12 C          63.9355   85.3071   13.6334 C.3     1  UNL1        0.0307
     13 C          63.5978   83.8992   13.2408 C.ar    1  UNL1       -0.0257
     14 C          63.9010   82.7665   14.1762 C.ar    1  UNL1       -0.0023
     15 C          63.5633   81.3588   13.7837 C.ar    1  UNL1        0.0293
     16 C          62.9224   81.0837   12.4557 C.ar    1  UNL1        0.1398
     17 F          62.5847   79.6759   12.0631 F       1  UNL1       -0.2042
     18 C          62.6192   82.2164   11.5202 C.ar    1  UNL1        0.0250
     19 C          62.9569   83.6242   11.9129 C.ar    1  UNL1       -0.0244
     20 C          61.4426   88.5331   11.1320 C.3     1  UNL1        0.0811
     21 C          62.4313   89.4570   11.7790 C.2     1  UNL1        0.0613
     22 C          63.2345   90.5160   11.0835 C.2     1  UNL1        0.0157
     23 C          64.0901   91.1977   12.1097 C.2     1  UNL1        0.0142
     24 C          65.0836   92.3167   12.0051 C.2     1  UNL1       -0.0019
     25 C          65.3578   92.9543   10.6753 C.3     1  UNL1        0.0327
     26 C          65.8028   92.7981   13.2303 C.2     1  UNL1        0.0893
     27 N          65.5285   92.1605   14.5600 N.2     1  UNL1       -0.2628
     28 C          64.5351   91.0415   14.6646 C.3     1  UNL1        0.1708
     29 C          63.8159   90.5601   13.4395 C.2     1  UNL1        0.0829
     30 N          62.7907   89.4843   13.2351 N.2     1  UNL1       -0.2519
@<TRIPOS>BOND
     1    12    13    1
     2    13    14   ar
     3    14    15   ar
     4    15    16   ar
     5    16    17    1
     6    16    18   ar
     7    18    19   ar
     8    19     9    1
     9     9    10    1
    10     9    11    1
    11     9     8    1
    12     8     1    1
    13     1     2    1
    14     1    20    1
    15    20    21    1
    16    21    22    2
    17    22    23    1
    18    23    24    2
    19    24    25    1
    20    24    26    1
    21    26    27    2
    22    27    28    1
    23    28    29    1
    24    29    30    2
    25     1     4    1
    26     4     5    1
    27     4     6    1
    28     4     7    1
    29    19    13   ar
    30    30    21    1
    31    29    23    1
    32     2     3    1
@<TRIPOS>MOLECULE
*****
 30 32 0 0 0
SMALL
GASTEIGER

@<TRIPOS>ATOM
      1 C          62.0192   88.2615   11.1957 C.3     1  UNL1        0.1812
      2 O          63.1622   87.9001   12.0973 O.3     1  UNL1       -0.3784
      3 H          63.3143   88.6189   12.7306 H       1  UNL1        0.2106
      4 C          60.8763   88.6229   10.2941 C.3     1  UNL1        0.4197
      5 F          59.7332   88.9844    9.3925 F       1  UNL1       -0.1676
      6 F          61.6384   88.0934    9.1156 F       1  UNL1       -0.1676
      7 F          60.1141   89.1524   11.4726 F       1  UNL1       -0.1676
      8 C          61.8645   89.5684   11.9157 C.3     1  UNL1        0.0398
      9 C          63.0793   90.3428   12.3335 C.3     1  UNL1        0.0212
     10 C          63.4503   90.5379   10.8933 C.3     1  UNL1        0.0044
     11 C          62.7082   90.1477   13.7737 C.3     1  UNL1        0.0044
     12 C          64.7046   89.4305   14.6843 C.3     1  UNL1        0.0307
     13 C          65.1067   90.6611   13.9267 C.ar    1  UNL1       -0.0257
     14 C          66.3214   91.4356   14.3445 C.ar    1  UNL1       -0.0023
     15 C          66.7235   92.6662   13.5870 C.ar    1  UNL1        0.0293
     16 C          65.9109   93.1224   12.4116 C.ar    1  UNL1        0.1398
     17 F          66.3130   94.3530   11.6541 F       1  UNL1       -0.2042
     18 C          64.6961   92.3480   11.9938 C.ar    1  UNL1        0.0250
     19 C          64.2940   91.1173   12.7513 C.ar    1  UNL1       -0.0244
     20 C          62.1739   86.9547   10.4758 C.3     1  UNL1        0.0811
     21 C          62.3753   85.6887   11.2546 C.2     1  UNL1        0.0613
     22 C          62.6920   84.3402   10.6788 C.2     1  UNL1        0.0157
     23 C          62.8078   83.3669   11.8143 C.2     1  UNL1        0.0142
     24 C          63.1047   81.8970   11.8499 C.2     1  UNL1       -0.0019
     25 C          63.3498   81.1501   10.5724 C.3     1  UNL1        0.0327
     26 C          63.1567   81.1740   13.1632 C.2     1  UNL1        0.0893
     27 N          62.9117   81.9209   14.4407 N.2     1  UNL1       -0.2628
     28 C          62.6147   83.3908   14.4051 C.3     1  UNL1        0.1708
     29 C          62.5628   84.1138   13.0919 C.2     1  UNL1        0.0829
     30 N          62.2955   85.5487   12.7459 N.2     1  UNL1       -0.2519
@<TRIPOS>BOND
     1    12    13    1
     2    13    14   ar
     3    14    15   ar
     4    15    16   ar
     5    16    17    1
     6    16    18   ar
     7    18    19   ar
     8    19     9    1
     9     9    10    1
    10     9    11    1
    11     9     8    1
    12     8     1    1
    13     1     2    1
    14     1    20    1
    15    20    21    1
    16    21    22    2
    17    22    23    1
    18    23    24    2
    19    24    25    1
    20    24    26    1
    21    26    27    2
    22    27    28    1
    23    28    29    1
    24    29    30    2
    25     1     4    1
    26     4     5    1
    27     4     6    1
    28     4     7    1
    29    19    13   ar
    30    30    21    1
    31    29    23    1
    32     2     3    1
@<TRIPOS>MOLECULE
*****
 30 32 0 0 0
SMALL
GASTEIGER

@<TRIPOS>ATOM
      1 C          61.5170   87.7503    9.4511 C.3     1  UNL1        0.1812
      2 O          62.9443   87.9189    9.8806 O.3     1  UNL1       -0.3784
      3 H          63.4108   87.0732    9.7916 H       1  UNL1        0.2106
      4 C          60.0898   87.5816    9.0217 C.3     1  UNL1        0.4197
      5 F          58.6625   87.4129    8.5922 F       1  UNL1       -0.1676
      6 F          59.6404   88.4072   10.1907 F       1  UNL1       -0.1676
      7 F          60.5391   86.7561    7.8527 F       1  UNL1       -0.1676
      8 C          61.7776   86.3034    9.1532 C.3     1  UNL1        0.0398
      9 C          62.2554   85.3879   10.2412 C.3     1  UNL1        0.0212
     10 C          61.2408   85.9724   11.1787 C.3     1  UNL1        0.0044
     11 C          63.2701   84.8034    9.3037 C.3     1  UNL1        0.0044
     12 C          63.4000   86.5304   12.7680 C.3     1  UNL1        0.0307
     13 C          63.3056   85.0437   12.5925 C.ar    1  UNL1       -0.0257
     14 C          63.7834   84.1282   13.6804 C.ar    1  UNL1       -0.0023
     15 C          63.6890   82.6415   13.5049 C.ar    1  UNL1        0.0293
     16 C          63.1167   82.0702   12.2415 C.ar    1  UNL1        0.1398
     17 F          63.0222   80.5835   12.0661 F       1  UNL1       -0.2042
     18 C          62.6388   82.9857   11.1536 C.ar    1  UNL1        0.0250
     19 C          62.7333   84.4724   11.3291 C.ar    1  UNL1       -0.0244
     20 C          61.2564   89.1971    9.7490 C.3     1  UNL1        0.0811
     21 C          62.3015   90.0201   10.4421 C.2     1  UNL1        0.0613
     22 C          62.7135   89.8940   11.8790 C.2     1  UNL1        0.0157
     23 C          63.7847   90.9097   12.1450 C.2     1  UNL1        0.0142
     24 C          64.5647   91.2455   13.3814 C.2     1  UNL1       -0.0019
     25 C          64.3146   90.4916   14.6538 C.3     1  UNL1        0.0327
     26 C          65.5948   92.3353   13.3454 C.2     1  UNL1        0.0893
     27 N          65.8449   93.0893   12.0730 N.2     1  UNL1       -0.2628
     28 C          65.0649   92.7534   10.8366 C.3     1  UNL1        0.1708
     29 C          64.0348   91.6637   10.8725 C.2     1  UNL1        0.0829
     30 N          63.1181   91.1139    9.8201 N.2     1  UNL1       -0.2519
@<TRIPOS>BOND
     1    12    13    1
     2    13    14   ar
     3    14    15   ar
     4    15    16   ar
     5    16    17    1
     6    16    18   ar
     7    18    19   ar
     8    19     9    1
     9     9    10    1
    10     9    11    1
    11     9     8    1
    12     8     1    1
    13     1     2    1
    14     1    20    1
    15    20    21    1
    16    21    22    2
    17    22    23    1
    18    23    24    2
    19    24    25    1
    20    24    26    1
    21    26    27    2
    22    27    28    1
    23    28    29    1
    24    29    30    2
    25     1     4    1
    26     4     5    1
    27     4     6    1
    28     4     7    1
    29    19    13   ar
    30    30    21    1
    31    29    23    1
    32     2     3    1
@<TRIPOS>MOLECULE
*****
 30 32 0 0 0
SMALL
GASTEIGER

@<TRIPOS>ATOM
      1 C          61.5773   87.3603    9.6683 C.3     1  UNL1        0.1812
      2 O          62.9297   87.4857   10.3047 O.3     1  UNL1       -0.3784
      3 H          63.3437   86.6102   10.3595 H       1  UNL1        0.2106
      4 C          60.2248   87.2348    9.0319 C.3     1  UNL1        0.4197
      5 F          58.8722   87.1094    8.3955 F       1  UNL1       -0.1676
      6 F          60.8333   86.4795    7.8875 F       1  UNL1       -0.1676
      7 F          59.6163   87.9900   10.1761 F       1  UNL1       -0.1676
      8 C          61.7781   85.8799    9.5331 C.3     1  UNL1        0.0398
      9 C          62.4356   85.1082   10.6387 C.3     1  UNL1        0.0212
     10 C          63.4278   84.5523    9.6607 C.3     1  UNL1        0.0044
     11 C          61.4433   85.6641   11.6167 C.3     1  UNL1        0.0044
     12 C          62.9324   82.1663   10.3250 C.3     1  UNL1        0.0307
     13 C          63.3414   82.8657   11.5875 C.ar    1  UNL1       -0.0257
     14 C          63.9989   82.0940   12.6931 C.ar    1  UNL1       -0.0023
     15 C          64.4079   82.7933   13.9555 C.ar    1  UNL1        0.0293
     16 C          64.1595   84.2643   14.1123 C.ar    1  UNL1        0.1398
     17 F          64.5685   84.9635   15.3747 F       1  UNL1       -0.2042
     18 C          63.5020   85.0359   13.0068 C.ar    1  UNL1        0.0250
     19 C          63.0930   84.3366   11.7443 C.ar    1  UNL1       -0.0244
     20 C          61.3764   88.8406    9.8034 C.3     1  UNL1        0.0811
     21 C          62.2672   89.6388   10.7084 C.2     1  UNL1        0.0613
     22 C          63.2302   90.7063   10.2803 C.2     1  UNL1        0.0157
     23 C          63.9098   91.2370   11.5078 C.2     1  UNL1        0.0142
     24 C          64.9528   92.2980   11.6982 C.2     1  UNL1       -0.0019
     25 C          65.4957   93.0375   10.5115 C.3     1  UNL1        0.0327
     26 C          65.4529   92.6196   13.0754 C.2     1  UNL1        0.0893
     27 N          64.9099   91.8801   14.2621 N.2     1  UNL1       -0.2628
     28 C          63.8669   90.8190   14.0717 C.3     1  UNL1        0.1708
     29 C          63.3668   90.4975   12.6945 C.2     1  UNL1        0.0829
     30 N          62.3516   89.5097   12.2005 N.2     1  UNL1       -0.2519
@<TRIPOS>BOND
     1    12    13    1
     2    13    14   ar
     3    14    15   ar
     4    15    16   ar
     5    16    17    1
     6    16    18   ar
     7    18    19   ar
     8    19     9    1
     9     9    10    1
    10     9    11    1
    11     9     8    1
    12     8     1    1
    13     1     2    1
    14     1    20    1
    15    20    21    1
    16    21    22    2
    17    22    23    1
    18    23    24    2
    19    24    25    1
    20    24    26    1
    21    26    27    2
    22    27    28    1
    23    28    29    1
    24    29    30    2
    25     1     4    1
    26     4     5    1
    27     4     6    1
    28     4     7    1
    29    19    13   ar
    30    30    21    1
    31    29    23    1
    32     2     3    1
@<TRIPOS>MOLECULE
*****
 30 32 0 0 0
SMALL
GASTEIGER

@<TRIPOS>ATOM
      1 C          62.1829   88.3914   11.5058 C.3     1  UNL1        0.1812
      2 O          63.3353   87.9270   12.3461 O.3     1  UNL1       -0.3784
      3 H          63.5517   88.6075   13.0027 H       1  UNL1        0.2106
      4 C          61.0305   88.8559   10.6655 C.3     1  UNL1        0.4197
      5 F          59.8780   89.3204    9.8252 F       1  UNL1       -0.1676
      6 F          61.7414   88.3863    9.4309 F       1  UNL1       -0.1676
      7 F          60.3196   89.3254   11.9000 F       1  UNL1       -0.1676
      8 C          62.1303   89.6718   12.2856 C.3     1  UNL1        0.0398
      9 C          63.3936   90.4283   12.5714 C.3     1  UNL1        0.0212
     10 C          63.6224   90.6025   11.0992 C.3     1  UNL1        0.0044
     11 C          63.1649   90.2541   14.0436 C.3     1  UNL1        0.0044
     12 C          64.3818   92.4873   10.6260 C.3     1  UNL1        0.0307
     13 C          65.1510   92.2143   11.8845 C.ar    1  UNL1       -0.0257
     14 C          66.4143   92.9708   12.1704 C.ar    1  UNL1       -0.0023
     15 C          67.1836   92.6979   13.4288 C.ar    1  UNL1        0.0293
     16 C          66.6895   91.6684   14.4015 C.ar    1  UNL1        0.1398
     17 F          67.4588   91.3955   15.6600 F       1  UNL1       -0.2042
     18 C          65.4262   90.9119   14.1157 C.ar    1  UNL1        0.0250
     19 C          64.6569   91.1849   12.8572 C.ar    1  UNL1       -0.0244
     20 C          62.2355   87.1112   10.7261 C.3     1  UNL1        0.0811
     21 C          62.4200   85.8051   11.4403 C.2     1  UNL1        0.0613
     22 C          62.7247   84.4842   10.7979 C.2     1  UNL1        0.0157
     23 C          62.8252   83.4533   11.8829 C.2     1  UNL1        0.0142
     24 C          63.1063   81.9804   11.8450 C.2     1  UNL1       -0.0019
     25 C          63.3489   81.2967   10.5321 C.3     1  UNL1        0.0327
     26 C          63.1448   81.1911   13.1200 C.2     1  UNL1        0.0893
     27 N          62.9021   81.8748   14.4329 N.2     1  UNL1       -0.2628
     28 C          62.6211   83.3477   14.4708 C.3     1  UNL1        0.1708
     29 C          62.5826   84.1370   13.1958 C.2     1  UNL1        0.0829
     30 N          62.3321   85.5905   12.9223 N.2     1  UNL1       -0.2519
@<TRIPOS>BOND
     1    12    13    1
     2    13    14   ar
     3    14    15   ar
     4    15    16   ar
     5    16    17    1
     6    16    18   ar
     7    18    19   ar
     8    19     9    1
     9     9    10    1
    10     9    11    1
    11     9     8    1
    12     8     1    1
    13     1     2    1
    14     1    20    1
    15    20    21    1
    16    21    22    2
    17    22    23    1
    18    23    24    2
    19    24    25    1
    20    24    26    1
    21    26    27    2
    22    27    28    1
    23    28    29    1
    24    29    30    2
    25     1     4    1
    26     4     5    1
    27     4     6    1
    28     4     7    1
    29    19    13   ar
    30    30    21    1
    31    29    23    1
    32     2     3    1
@<TRIPOS>MOLECULE
*****
 30 32 0 0 0
SMALL
GASTEIGER

@<TRIPOS>ATOM
      1 C          61.2004   89.0277   10.7066 C.3     1  UNL1        0.1812
      2 O          62.5188   88.4655   10.2643 O.3     1  UNL1       -0.3784
      3 H          63.1509   89.1893   10.1318 H       1  UNL1        0.2106
      4 C          59.8819   89.5900   11.1488 C.3     1  UNL1        0.4197
      5 F          58.5634   90.1522   11.5910 F       1  UNL1       -0.1676
      6 F          60.0454   90.7297   10.1873 F       1  UNL1       -0.1676
      7 F          59.7184   88.4503   12.1102 F       1  UNL1       -0.1676
      8 C          61.7709   90.4137   10.6456 C.3     1  UNL1        0.0398
      9 C          62.9276   90.7879   11.5242 C.3     1  UNL1        0.0212
     10 C          62.1584   90.3350   12.7297 C.3     1  UNL1        0.0044
     11 C          63.6968   91.2409   10.3188 C.3     1  UNL1        0.0044
     12 C          63.8249   88.9244   13.6973 C.3     1  UNL1        0.0307
     13 C          64.5329   90.2304   13.4894 C.ar    1  UNL1       -0.0257
     14 C          65.6896   90.6046   14.3681 C.ar    1  UNL1       -0.0023
     15 C          66.3976   91.9105   14.1602 C.ar    1  UNL1        0.0293
     16 C          65.9490   92.8423   13.0737 C.ar    1  UNL1        0.1398
     17 F          66.6570   94.1482   12.8658 F       1  UNL1       -0.2042
     18 C          64.7923   92.4681   12.1950 C.ar    1  UNL1        0.0250
     19 C          64.0843   91.1621   12.4029 C.ar    1  UNL1       -0.0244
     20 C          60.6298   87.6419   10.7675 C.3     1  UNL1        0.0811
     21 C          61.5446   86.4586   10.8809 C.2     1  UNL1        0.0613
     22 C          61.9720   85.7935   12.1558 C.2     1  UNL1        0.0157
     23 C          62.8842   84.6564   11.8022 C.2     1  UNL1        0.0142
     24 C          63.6082   83.6505   12.6471 C.2     1  UNL1       -0.0019
     25 C          63.4718   83.6881   14.1404 C.3     1  UNL1        0.0327
     26 C          64.4687   82.6068   11.9986 C.2     1  UNL1        0.0893
     27 N          64.6051   82.5691   10.5054 N.2     1  UNL1       -0.2628
     28 C          63.8810   83.5750    9.6605 C.3     1  UNL1        0.1708
     29 C          63.0206   84.6187   10.3089 C.2     1  UNL1        0.0829
     30 N          62.1927   85.7325    9.7395 N.2     1  UNL1       -0.2519
@<TRIPOS>BOND
     1    12    13    1
     2    13    14   ar
     3    14    15   ar
     4    15    16   ar
     5    16    17    1
     6    16    18   ar
     7    18    19   ar
     8    19     9    1
     9     9    10    1
    10     9    11    1
    11     9     8    1
    12     8     1    1
    13     1     2    1
    14     1    20    1
    15    20    21    1
    16    21    22    2
    17    22    23    1
    18    23    24    2
    19    24    25    1
    20    24    26    1
    21    26    27    2
    22    27    28    1
    23    28    29    1
    24    29    30    2
    25     1     4    1
    26     4     5    1
    27     4     6    1
    28     4     7    1
    29    19    13   ar
    30    30    21    1
    31    29    23    1
    32     2     3    1
