@<TRIPOS>MOLECULE
*****
 47 51 0 0 0
SMALL
GASTEIGER

@<TRIPOS>ATOM
      1 C          64.1515   85.5891   16.3025 C.3     1  UNL1        0.2054
      2 O          64.6267   85.9313   14.9216 O.3     1  UNL1       -0.4755
      3 C          63.8633   85.4475   13.7244 C.ar    1  UNL1        0.1386
      4 C          63.1985   86.4336   12.8102 C.ar    1  UNL1        0.0369
      5 C          62.4351   85.9500   11.6130 C.ar    1  UNL1        0.0031
      6 C          62.3365   84.4802   11.3300 C.ar    1  UNL1        0.0003
      7 C          63.0012   83.4941   12.2442 C.ar    1  UNL1        0.0052
      8 C          63.7646   83.9778   13.4414 C.ar    1  UNL1        0.0370
      9 C          61.7704   86.9361   10.6988 C.ar    1  UNL1        0.0033
     10 C          61.9771   88.4073   10.9048 C.ar    1  UNL1        0.0033
     11 C          61.3123   89.3934    9.9907 C.ar    1  UNL1        0.0402
     12 C          60.4409   88.9082    8.8704 C.ar    1  UNL1        0.1764
     13 C          60.2341   87.4368    8.6643 C.ar    1  UNL1        0.1764
     14 C          60.8989   86.4508    9.5784 C.ar    1  UNL1        0.0402
     15 O          59.3267   87.2571    7.4835 O.3     1  UNL1       -0.4346
     16 C          58.9727   88.6174    6.9598 C.3     1  UNL1        0.4294
     17 O          59.6612   89.6378    7.8169 O.3     1  UNL1       -0.4346
     18 C          62.9025   82.0243   11.9612 C.ar    1  UNL1        0.0276
     19 C          63.2259   81.5006   10.5933 C.ar    1  UNL1        0.0022
     20 C          63.1272   80.0308   10.3104 C.ar    1  UNL1        0.0001
     21 C          62.7052   79.0849   11.3953 C.ar    1  UNL1        0.0023
     22 C          62.3818   79.6086   12.7632 C.ar    1  UNL1        0.0296
     23 C          62.4805   81.0784   13.0462 C.ar    1  UNL1        0.1401
     24 F          62.1572   81.6021   14.4141 F       1  UNL1       -0.2042
     25 C          62.9558   86.2878   16.8789 C.3     1  UNL1        0.0473
     26 C          63.0847   87.6885   17.3998 C.3     1  UNL1        0.0038
     27 C          62.8236   88.8535   16.4915 C.3     1  UNL1        0.0005
     28 C          63.8261   89.2228   15.4386 C.3     1  UNL1        0.0047
     29 C          64.2779   90.6463   15.2997 C.3     1  UNL1        0.0261
     30 C          65.7501   92.9037   12.3863 C.ar    1  UNL1        0.1342
     31 C          64.9623   92.4013   11.2129 C.ar    1  UNL1        0.0365
     32 C          63.9464   91.3140   11.4017 C.ar    1  UNL1        0.0028
     33 C          63.7183   90.7290   12.7639 C.ar    1  UNL1       -0.0044
     34 C          64.5061   91.2313   13.9374 C.ar    1  UNL1       -0.0232
     35 C          65.5219   92.3186   13.7486 C.ar    1  UNL1        0.0082
     36 C          66.3097   92.8210   14.9221 C.3     1  UNL1        0.0350
     37 C          67.6054   92.1623   15.2931 C.3     1  UNL1        0.0465
     38 C          68.8997   92.8984   15.1123 C.2     1  UNL1        0.0507
     39 O          69.8730   92.4568   14.0599 O.co2   1  UNL1       -0.5492
     40 O          69.2208   94.0763   15.9839 O.co2   1  UNL1       -0.5492
     41 O          66.7660   93.9910   12.1975 O.3     1  UNL1       -0.4758
     42 C          66.5361   95.0625   11.1734 C.3     1  UNL1        0.2058
     43 C          66.7142   94.7572    9.7156 C.3     1  UNL1        0.0532
     44 C          68.0605   94.3515    9.1933 C.3     1  UNL1        0.0455
     45 O          68.7526   92.1284    8.0404 O.co2   1  UNL1       -0.5492
     46 C          68.5022   92.9212    9.2889 C.2     1  UNL1        0.0505
     47 O          68.6935   92.2837   10.6331 O.co2   1  UNL1       -0.5492
@<TRIPOS>UNITY_ATOM_ATTR
39 1
charge -1
45 1
charge -1
@<TRIPOS>BOND
     1    45    46   ar
     2    46    47   ar
     3    46    44    1
     4    44    43    1
     5    43    42    1
     6    42    41    1
     7    41    30    1
     8    30    31   ar
     9    31    32   ar
    10    32    33   ar
    11    33    34   ar
    12    34    29    1
    13    29    28    1
    14    28    27    1
    15    27    26    1
    16    26    25    1
    17    25     1    1
    18     1     2    1
    19     2     3    1
    20     3     4   ar
    21     4     5   ar
    22     5     9    1
    23     9    10   ar
    24    10    11   ar
    25    11    12   ar
    26    12    13   ar
    27    13    14   ar
    28    13    15    1
    29    15    16    1
    30    16    17    1
    31     5     6   ar
    32     6     7   ar
    33     7    18    1
    34    18    19   ar
    35    19    20   ar
    36    20    21   ar
    37    21    22   ar
    38    22    23   ar
    39    23    24    1
    40     7     8   ar
    41    34    35   ar
    42    35    36    1
    43    36    37    1
    44    37    38    1
    45    38    39   ar
    46    38    40   ar
    47    35    30   ar
    48     8     3   ar
    49    14     9   ar
    50    23    18   ar
    51    17    12    1
@<TRIPOS>MOLECULE
*****
 47 51 0 0 0
SMALL
GASTEIGER

@<TRIPOS>ATOM
      1 C          63.9084   85.9972   16.4554 C.3     1  UNL1        0.2054
      2 O          64.5977   85.9625   15.1236 O.3     1  UNL1       -0.4755
      3 C          63.8593   85.4826   13.9093 C.ar    1  UNL1        0.1386
      4 C          63.2328   86.4727   12.9726 C.ar    1  UNL1        0.0369
      5 C          62.4944   85.9929   11.7583 C.ar    1  UNL1        0.0031
      6 C          62.3825   84.5230   11.4806 C.ar    1  UNL1        0.0003
      7 C          63.0089   83.5330   12.4173 C.ar    1  UNL1        0.0052
      8 C          63.7473   84.0128   13.6316 C.ar    1  UNL1        0.0370
      9 C          61.8679   86.9830   10.8216 C.ar    1  UNL1        0.0033
     10 C          62.1811   88.4437   10.9550 C.ar    1  UNL1        0.0033
     11 C          61.5546   89.4338   10.0184 C.ar    1  UNL1        0.0402
     12 C          60.6149   88.9629    8.9482 C.ar    1  UNL1        0.1764
     13 C          60.3016   87.5021    8.8147 C.ar    1  UNL1        0.1764
     14 C          60.9281   86.5121    9.7514 C.ar    1  UNL1        0.0402
     15 O          59.3448   87.3357    7.6716 O.3     1  UNL1       -0.4346
     16 C          59.0668   88.6938    7.0986 C.3     1  UNL1        0.4294
     17 O          59.8517   89.6995    7.8875 O.3     1  UNL1       -0.4346
     18 C          62.8970   82.0632   12.1396 C.ar    1  UNL1        0.0276
     19 C          62.4359   81.1290   13.2189 C.ar    1  UNL1        0.0022
     20 C          62.3240   79.6592   12.9411 C.ar    1  UNL1        0.0001
     21 C          62.6732   79.1236   11.5842 C.ar    1  UNL1        0.0023
     22 C          63.1343   80.0578   10.5050 C.ar    1  UNL1        0.0296
     23 C          63.2462   81.5276   10.7827 C.ar    1  UNL1        0.1401
     24 F          63.7073   82.4618    9.7035 F       1  UNL1       -0.2042
     25 C          62.8402   87.0162   16.7207 C.3     1  UNL1        0.0473
     26 C          63.2141   88.4475   16.9687 C.3     1  UNL1        0.0038
     27 C          63.1765   89.4383   15.8430 C.3     1  UNL1        0.0005
     28 C          64.2980   89.4860   14.8481 C.3     1  UNL1        0.0047
     29 C          65.0221   90.7751   14.5954 C.3     1  UNL1        0.0261
     30 C          66.4020   92.5095   11.3033 C.ar    1  UNL1        0.1342
     31 C          65.1765   92.4915   10.4384 C.ar    1  UNL1        0.0365
     32 C          63.8996   91.9014   10.9592 C.ar    1  UNL1        0.0028
     33 C          63.8481   91.3293   12.3448 C.ar    1  UNL1       -0.0044
     34 C          65.0735   91.3473   13.2097 C.ar    1  UNL1       -0.0232
     35 C          66.3504   91.9374   12.6890 C.ar    1  UNL1        0.0082
     36 C          67.5759   91.9554   13.5538 C.3     1  UNL1        0.0350
     37 C          67.8076   93.0938   14.5027 C.3     1  UNL1        0.0465
     38 C          67.8257   92.8455   15.9818 C.2     1  UNL1        0.0507
     39 O          66.5516   92.9173   16.7701 O.co2   1  UNL1       -0.5492
     40 O          69.1181   92.5253   16.6729 O.co2   1  UNL1       -0.5492
     41 O          67.6789   93.0997   10.7825 O.3     1  UNL1       -0.4758
     42 C          67.8071   93.4452    9.3285 C.3     1  UNL1        0.2058
     43 C          67.2586   94.7434    8.8149 C.3     1  UNL1        0.0532
     44 C          67.2447   95.9543    9.7001 C.3     1  UNL1        0.0455
     45 O          64.8103   96.8556    9.8063 O.co2   1  UNL1       -0.5492
     46 C          66.0169   96.2890   10.4941 C.2     1  UNL1        0.0505
     47 O          65.9957   96.0570   11.9759 O.co2   1  UNL1       -0.5492
@<TRIPOS>UNITY_ATOM_ATTR
39 1
charge -1
45 1
charge -1
@<TRIPOS>BOND
     1    45    46   ar
     2    46    47   ar
     3    46    44    1
     4    44    43    1
     5    43    42    1
     6    42    41    1
     7    41    30    1
     8    30    31   ar
     9    31    32   ar
    10    32    33   ar
    11    33    34   ar
    12    34    29    1
    13    29    28    1
    14    28    27    1
    15    27    26    1
    16    26    25    1
    17    25     1    1
    18     1     2    1
    19     2     3    1
    20     3     4   ar
    21     4     5   ar
    22     5     9    1
    23     9    10   ar
    24    10    11   ar
    25    11    12   ar
    26    12    13   ar
    27    13    14   ar
    28    13    15    1
    29    15    16    1
    30    16    17    1
    31     5     6   ar
    32     6     7   ar
    33     7    18    1
    34    18    19   ar
    35    19    20   ar
    36    20    21   ar
    37    21    22   ar
    38    22    23   ar
    39    23    24    1
    40     7     8   ar
    41    34    35   ar
    42    35    36    1
    43    36    37    1
    44    37    38    1
    45    38    39   ar
    46    38    40   ar
    47    35    30   ar
    48     8     3   ar
    49    14     9   ar
    50    23    18   ar
    51    17    12    1
@<TRIPOS>MOLECULE
*****
 47 51 0 0 0
SMALL
GASTEIGER

@<TRIPOS>ATOM
      1 C          66.4334   92.5710   15.7534 C.3     1  UNL1        0.2054
      2 O          66.6741   91.6981   14.5576 O.3     1  UNL1       -0.4755
      3 C          65.9272   91.9515   13.2816 C.ar    1  UNL1        0.1386
      4 C          64.7206   91.1274   12.9426 C.ar    1  UNL1        0.0369
      5 C          63.9737   91.3807   11.6667 C.ar    1  UNL1        0.0031
      6 C          64.4333   92.4582   10.7298 C.ar    1  UNL1        0.0003
      7 C          65.6399   93.2824   11.0688 C.ar    1  UNL1        0.0052
      8 C          66.3868   93.0290   12.3447 C.ar    1  UNL1        0.0370
      9 C          62.7670   90.5566   11.3276 C.ar    1  UNL1        0.0033
     10 C          61.5743   90.5637   12.2370 C.ar    1  UNL1        0.0033
     11 C          60.3677   89.7395   11.8980 C.ar    1  UNL1        0.0402
     12 C          60.3539   88.9083   10.6495 C.ar    1  UNL1        0.1764
     13 C          61.5467   88.9012    9.7400 C.ar    1  UNL1        0.1764
     14 C          62.7533   89.7253   10.0790 C.ar    1  UNL1        0.0402
     15 O          61.2453   87.9900    8.5872 O.3     1  UNL1       -0.4346
     16 C          59.8661   87.4340    8.7842 C.3     1  UNL1        0.4294
     17 O          59.3152   88.0015   10.0588 O.3     1  UNL1       -0.4346
     18 C          66.0996   94.3599   10.1319 C.ar    1  UNL1        0.0276
     19 C          65.4341   95.7041   10.1506 C.ar    1  UNL1        0.0022
     20 C          65.8939   96.7815    9.2136 C.ar    1  UNL1        0.0001
     21 C          67.0190   96.5148    8.2582 C.ar    1  UNL1        0.0023
     22 C          67.6844   95.1706    8.2396 C.ar    1  UNL1        0.0296
     23 C          67.2248   94.0931    9.1764 C.ar    1  UNL1        0.1401
     24 F          67.8902   92.7489    9.1578 F       1  UNL1       -0.2042
     25 C          65.2480   92.3212   16.6379 C.3     1  UNL1        0.0473
     26 C          64.0279   91.6469   16.0842 C.3     1  UNL1        0.0038
     27 C          63.7090   90.2344   16.4756 C.3     1  UNL1        0.0005
     28 C          63.2588   89.2515   15.4358 C.3     1  UNL1        0.0047
     29 C          64.2629   88.3750   14.7477 C.3     1  UNL1        0.0261
     30 C          63.4573   84.6258   13.7255 C.ar    1  UNL1        0.1342
     31 C          62.8830   84.8231   12.3539 C.ar    1  UNL1        0.0365
     32 C          62.7687   86.2043   11.7802 C.ar    1  UNL1        0.0028
     33 C          63.2286   87.3883   12.5781 C.ar    1  UNL1       -0.0044
     34 C          63.8029   87.1910   13.9497 C.ar    1  UNL1       -0.0232
     35 C          63.9172   85.8098   14.5234 C.ar    1  UNL1        0.0082
     36 C          64.4915   85.6125   15.8950 C.3     1  UNL1        0.0350
     37 C          63.5847   85.3143   17.0521 C.3     1  UNL1        0.0465
     38 C          62.4986   86.2803   17.4222 C.2     1  UNL1        0.0507
     39 O          62.7779   87.3854   18.3972 O.co2   1  UNL1       -0.5492
     40 O          61.1330   86.1414   16.8171 O.co2   1  UNL1       -0.5492
     41 O          63.5716   83.2445   14.2991 O.3     1  UNL1       -0.4758
     42 C          62.3390   82.4172   14.5139 C.3     1  UNL1        0.2058
     43 C          61.8347   81.5246   13.4190 C.3     1  UNL1        0.0532
     44 C          62.7886   80.6374   12.6753 C.3     1  UNL1        0.0455
     45 O          64.6326   82.0959   11.5696 O.co2   1  UNL1       -0.5492
     46 C          63.4798   81.1443   11.4444 C.2     1  UNL1        0.0505
     47 O          63.0183   80.6996   10.0882 O.co2   1  UNL1       -0.5492
@<TRIPOS>UNITY_ATOM_ATTR
39 1
charge -1
45 1
charge -1
@<TRIPOS>BOND
     1    45    46   ar
     2    46    47   ar
     3    46    44    1
     4    44    43    1
     5    43    42    1
     6    42    41    1
     7    41    30    1
     8    30    31   ar
     9    31    32   ar
    10    32    33   ar
    11    33    34   ar
    12    34    29    1
    13    29    28    1
    14    28    27    1
    15    27    26    1
    16    26    25    1
    17    25     1    1
    18     1     2    1
    19     2     3    1
    20     3     4   ar
    21     4     5   ar
    22     5     9    1
    23     9    10   ar
    24    10    11   ar
    25    11    12   ar
    26    12    13   ar
    27    13    14   ar
    28    13    15    1
    29    15    16    1
    30    16    17    1
    31     5     6   ar
    32     6     7   ar
    33     7    18    1
    34    18    19   ar
    35    19    20   ar
    36    20    21   ar
    37    21    22   ar
    38    22    23   ar
    39    23    24    1
    40     7     8   ar
    41    34    35   ar
    42    35    36    1
    43    36    37    1
    44    37    38    1
    45    38    39   ar
    46    38    40   ar
    47    35    30   ar
    48     8     3   ar
    49    14     9   ar
    50    23    18   ar
    51    17    12    1
@<TRIPOS>MOLECULE
*****
 47 51 0 0 0
SMALL
GASTEIGER

@<TRIPOS>ATOM
      1 C          64.0409   91.1603   16.1161 C.3     1  UNL1        0.2054
      2 O          65.1224   91.0456   15.0831 O.3     1  UNL1       -0.4755
      3 C          64.8103   91.3040   13.6387 C.ar    1  UNL1        0.1386
      4 C          63.7183   90.5333   12.9580 C.ar    1  UNL1        0.0369
      5 C          63.4062   90.7915   11.5137 C.ar    1  UNL1        0.0031
      6 C          64.1862   91.8205   10.7502 C.ar    1  UNL1        0.0003
      7 C          65.2782   92.5912   11.4310 C.ar    1  UNL1        0.0052
      8 C          65.5903   92.3329   12.8752 C.ar    1  UNL1        0.0370
      9 C          62.3141   90.0208   10.8329 C.ar    1  UNL1        0.0033
     10 C          60.8962   90.5042   10.9076 C.ar    1  UNL1        0.0033
     11 C          59.8042   89.7335   10.2268 C.ar    1  UNL1        0.0402
     12 C          60.1301   88.4793    9.4714 C.ar    1  UNL1        0.1764
     13 C          61.5481   87.9958    9.3967 C.ar    1  UNL1        0.1764
     14 C          62.6401   88.7665   10.0774 C.ar    1  UNL1        0.0402
     15 O          61.5657   86.7345    8.5850 O.3     1  UNL1       -0.4346
     16 C          60.1585   86.4385    8.1580 C.3     1  UNL1        0.4294
     17 O          59.2713   87.5169    8.7058 O.3     1  UNL1       -0.4346
     18 C          66.0582   93.6201   10.6675 C.ar    1  UNL1        0.0276
     19 C          65.6676   95.0664   10.7441 C.ar    1  UNL1        0.0022
     20 C          66.4476   96.0953    9.9805 C.ar    1  UNL1        0.0001
     21 C          67.6181   95.6779    9.1405 C.ar    1  UNL1        0.0023
     22 C          68.0087   94.2317    9.0639 C.ar    1  UNL1        0.0296
     23 C          67.2287   93.2028    9.8274 C.ar    1  UNL1        0.1401
     24 F          67.6193   91.7565    9.7508 F       1  UNL1       -0.2042
     25 C          62.9920   90.0935   16.2253 C.3     1  UNL1        0.0473
     26 C          63.3635   88.7232   16.7092 C.3     1  UNL1        0.0038
     27 C          62.3530   87.8842   17.4339 C.3     1  UNL1        0.0005
     28 C          62.6654   86.4557   17.7680 C.3     1  UNL1        0.0047
     29 C          62.4344   85.3794   16.7490 C.3     1  UNL1        0.0261
     30 C          64.4564   83.4529   13.9294 C.ar    1  UNL1        0.1342
     31 C          65.6941   84.2958   13.8421 C.ar    1  UNL1        0.0365
     32 C          65.8452   85.4998   14.7238 C.ar    1  UNL1        0.0028
     33 C          64.7587   85.8611   15.6927 C.ar    1  UNL1       -0.0044
     34 C          63.5210   85.0182   15.7800 C.ar    1  UNL1       -0.0232
     35 C          63.3698   83.8142   14.8984 C.ar    1  UNL1        0.0082
     36 C          62.1321   82.9712   14.9857 C.3     1  UNL1        0.0350
     37 C          61.6415   82.2316   13.7764 C.3     1  UNL1        0.0465
     38 C          61.2438   80.7898   13.8892 C.2     1  UNL1        0.0507
     39 O          59.9139   80.4224   14.4777 O.co2   1  UNL1       -0.5492
     40 O          62.1761   79.7151   13.4136 O.co2   1  UNL1       -0.5492
     41 O          64.3053   82.2488   13.0478 O.3     1  UNL1       -0.4758
     42 C          64.2341   82.4138   11.5586 C.3     1  UNL1        0.2058
     43 C          63.2149   83.3332   10.9538 C.3     1  UNL1        0.0532
     44 C          63.4652   84.8118   10.9194 C.3     1  UNL1        0.0455
     45 O          61.1544   85.6959   11.7123 O.co2   1  UNL1       -0.5492
     46 C          62.6524   85.7304   11.7827 C.2     1  UNL1        0.0505
     47 O          63.3375   86.6836   12.7166 O.co2   1  UNL1       -0.5492
@<TRIPOS>UNITY_ATOM_ATTR
39 1
charge -1
45 1
charge -1
@<TRIPOS>BOND
     1    45    46   ar
     2    46    47   ar
     3    46    44    1
     4    44    43    1
     5    43    42    1
     6    42    41    1
     7    41    30    1
     8    30    31   ar
     9    31    32   ar
    10    32    33   ar
    11    33    34   ar
    12    34    29    1
    13    29    28    1
    14    28    27    1
    15    27    26    1
    16    26    25    1
    17    25     1    1
    18     1     2    1
    19     2     3    1
    20     3     4   ar
    21     4     5   ar
    22     5     9    1
    23     9    10   ar
    24    10    11   ar
    25    11    12   ar
    26    12    13   ar
    27    13    14   ar
    28    13    15    1
    29    15    16    1
    30    16    17    1
    31     5     6   ar
    32     6     7   ar
    33     7    18    1
    34    18    19   ar
    35    19    20   ar
    36    20    21   ar
    37    21    22   ar
    38    22    23   ar
    39    23    24    1
    40     7     8   ar
    41    34    35   ar
    42    35    36    1
    43    36    37    1
    44    37    38    1
    45    38    39   ar
    46    38    40   ar
    47    35    30   ar
    48     8     3   ar
    49    14     9   ar
    50    23    18   ar
    51    17    12    1
@<TRIPOS>MOLECULE
*****
 47 51 0 0 0
SMALL
GASTEIGER

@<TRIPOS>ATOM
      1 C          59.8497   88.3193    7.7492 C.3     1  UNL1        0.2054
      2 O          59.6219   88.0789    9.2122 O.3     1  UNL1       -0.4755
      3 C          60.7860   87.8023   10.1169 C.ar    1  UNL1        0.1386
      4 C          61.5814   88.9401   10.6848 C.ar    1  UNL1        0.0369
      5 C          62.7455   88.6635   11.5894 C.ar    1  UNL1        0.0031
      6 C          63.1141   87.2491   11.9262 C.ar    1  UNL1        0.0003
      7 C          62.3187   86.1112   11.3583 C.ar    1  UNL1        0.0052
      8 C          61.1546   86.3878   10.4536 C.ar    1  UNL1        0.0370
      9 C          63.5410   89.8015   12.1574 C.ar    1  UNL1        0.0033
     10 C          63.8932   89.8163   13.6153 C.ar    1  UNL1        0.0033
     11 C          64.6886   90.9541   14.1832 C.ar    1  UNL1        0.0402
     12 C          65.1319   92.0772   13.2931 C.ar    1  UNL1        0.1764
     13 C          64.7797   92.0624   11.8351 C.ar    1  UNL1        0.1764
     14 C          63.9842   90.9245   11.2672 C.ar    1  UNL1        0.0402
     15 O          65.3510   93.2993   11.2077 O.3     1  UNL1       -0.4346
     16 C          66.0563   94.0785   12.2779 C.3     1  UNL1        0.4294
     17 O          65.9209   93.3232   13.5668 O.3     1  UNL1       -0.4346
     18 C          62.6873   84.6967   11.6951 C.ar    1  UNL1        0.0276
     19 C          62.4335   84.1635   13.0739 C.ar    1  UNL1        0.0022
     20 C          62.8022   82.7490   13.4106 C.ar    1  UNL1        0.0001
     21 C          63.4246   81.8678   12.3684 C.ar    1  UNL1        0.0023
     22 C          63.6785   82.4011   10.9896 C.ar    1  UNL1        0.0296
     23 C          63.3098   83.8155   10.6528 C.ar    1  UNL1        0.1401
     24 F          63.5637   84.3488    9.2740 F       1  UNL1       -0.2042
     25 C          59.0113   89.3231    7.0147 C.3     1  UNL1        0.0473
     26 C          59.6186   90.1507    5.9209 C.3     1  UNL1        0.0038
     27 C          58.7884   91.1763    5.2075 C.3     1  UNL1        0.0005
     28 C          59.4460   92.3709    4.5827 C.3     1  UNL1        0.0047
     29 C          59.4344   92.5395    3.0923 C.3     1  UNL1        0.0261
     30 C          62.0063   93.5303    0.2367 C.ar    1  UNL1        0.1342
     31 C          63.3016   93.1036    0.8614 C.ar    1  UNL1        0.0365
     32 C          63.3078   92.4889    2.2296 C.ar    1  UNL1        0.0028
     33 C          62.0188   92.3009    2.9733 C.ar    1  UNL1       -0.0044
     34 C          60.7235   92.7276    2.3486 C.ar    1  UNL1       -0.0232
     35 C          60.7172   93.3422    0.9804 C.ar    1  UNL1        0.0082
     36 C          59.4219   93.7689    0.3558 C.3     1  UNL1        0.0350
     37 C          58.5816   92.7710   -0.3846 C.3     1  UNL1        0.0465
     38 C          57.2378   93.1707   -0.9176 C.2     1  UNL1        0.0507
     39 O          56.8338   94.6152   -0.9266 O.co2   1  UNL1       -0.5492
     40 O          56.2977   92.1258   -1.4417 O.co2   1  UNL1       -0.5492
     41 O          62.0001   94.1450   -1.1315 O.3     1  UNL1       -0.4758
     42 C          63.2873   94.3182   -1.8817 C.3     1  UNL1        0.2058
     43 C          63.6976   93.3071   -2.9109 C.3     1  UNL1        0.0532
     44 C          64.4544   93.7427   -4.1305 C.3     1  UNL1        0.0455
     45 O          63.6468   92.5534   -6.2946 O.co2   1  UNL1       -0.5492
     46 C          64.6988   92.7724   -5.2479 C.2     1  UNL1        0.0505
     47 O          65.9951   92.0211   -5.3188 O.co2   1  UNL1       -0.5492
@<TRIPOS>UNITY_ATOM_ATTR
39 1
charge -1
45 1
charge -1
@<TRIPOS>BOND
     1    45    46   ar
     2    46    47   ar
     3    46    44    1
     4    44    43    1
     5    43    42    1
     6    42    41    1
     7    41    30    1
     8    30    31   ar
     9    31    32   ar
    10    32    33   ar
    11    33    34   ar
    12    34    29    1
    13    29    28    1
    14    28    27    1
    15    27    26    1
    16    26    25    1
    17    25     1    1
    18     1     2    1
    19     2     3    1
    20     3     4   ar
    21     4     5   ar
    22     5     9    1
    23     9    10   ar
    24    10    11   ar
    25    11    12   ar
    26    12    13   ar
    27    13    14   ar
    28    13    15    1
    29    15    16    1
    30    16    17    1
    31     5     6   ar
    32     6     7   ar
    33     7    18    1
    34    18    19   ar
    35    19    20   ar
    36    20    21   ar
    37    21    22   ar
    38    22    23   ar
    39    23    24    1
    40     7     8   ar
    41    34    35   ar
    42    35    36    1
    43    36    37    1
    44    37    38    1
    45    38    39   ar
    46    38    40   ar
    47    35    30   ar
    48     8     3   ar
    49    14     9   ar
    50    23    18   ar
    51    17    12    1
@<TRIPOS>MOLECULE
*****
 47 51 0 0 0
SMALL
GASTEIGER

@<TRIPOS>ATOM
      1 C          65.5083   92.0131   16.0684 C.3     1  UNL1        0.2054
      2 O          66.2549   91.6525   14.8184 O.3     1  UNL1       -0.4755
      3 C          65.6329   91.8992   13.4759 C.ar    1  UNL1        0.1386
      4 C          64.4234   91.1182   13.0549 C.ar    1  UNL1        0.0369
      5 C          63.8014   91.3648   11.7124 C.ar    1  UNL1        0.0031
      6 C          64.3889   92.3923   10.7909 C.ar    1  UNL1        0.0003
      7 C          65.5984   93.1732   11.2119 C.ar    1  UNL1        0.0052
      8 C          66.2204   92.9266   12.5544 C.ar    1  UNL1        0.0370
      9 C          62.5918   90.5838   11.2913 C.ar    1  UNL1        0.0033
     10 C          61.6393   90.0611   12.3253 C.ar    1  UNL1        0.0033
     11 C          60.4298   89.2802   11.9043 C.ar    1  UNL1        0.0402
     12 C          60.1728   89.0221   10.4492 C.ar    1  UNL1        0.1764
     13 C          61.1254   89.5449    9.4151 C.ar    1  UNL1        0.1764
     14 C          62.3349   90.3258    9.8361 C.ar    1  UNL1        0.0402
     15 O          60.6145   89.1359    8.0654 O.3     1  UNL1       -0.4346
     16 C          59.3463   88.3604    8.2653 C.3     1  UNL1        0.4294
     17 O          59.0733   88.2900    9.7386 O.3     1  UNL1       -0.4346
     18 C          66.1859   94.2007   10.2904 C.ar    1  UNL1        0.0276
     19 C          65.6352   95.5958   10.2740 C.ar    1  UNL1        0.0022
     20 C          66.2227   96.6232    9.3524 C.ar    1  UNL1        0.0001
     21 C          67.3610   96.2555    8.4474 C.ar    1  UNL1        0.0023
     22 C          67.9117   94.8604    8.4638 C.ar    1  UNL1        0.0296
     23 C          67.3242   93.8329    9.3853 C.ar    1  UNL1        0.1401
     24 F          67.8749   92.4377    9.4016 F       1  UNL1       -0.2042
     25 C          64.0413   91.7198   16.1768 C.3     1  UNL1        0.0473
     26 C          63.5785   90.3948   16.7062 C.3     1  UNL1        0.0038
     27 C          63.1081   89.3315   15.7584 C.3     1  UNL1        0.0005
     28 C          64.0889   88.3549   15.1804 C.3     1  UNL1        0.0047
     29 C          63.7746   87.6480   13.8953 C.3     1  UNL1        0.0261
     30 C          63.5288   83.8915   12.6387 C.ar    1  UNL1        0.1342
     31 C          64.5638   83.2350   13.5036 C.ar    1  UNL1        0.0365
     32 C          65.3356   84.0495   14.4989 C.ar    1  UNL1        0.0028
     33 C          65.0726   85.5205   14.6295 C.ar    1  UNL1       -0.0044
     34 C          64.0377   86.1769   13.7647 C.ar    1  UNL1       -0.0232
     35 C          63.2658   85.3625   12.7694 C.ar    1  UNL1        0.0082
     36 C          62.2308   86.0190   11.9045 C.3     1  UNL1        0.0350
     37 C          62.5987   86.5093   10.5354 C.3     1  UNL1        0.0465
     38 C          62.3207   85.6561    9.3335 C.2     1  UNL1        0.0507
     39 O          63.3901   84.7563    8.7888 O.co2   1  UNL1       -0.5492
     40 O          60.9732   85.7027    8.6761 O.co2   1  UNL1       -0.5492
     41 O          62.7569   83.0770   11.6434 O.3     1  UNL1       -0.4758
     42 C          63.0644   81.6195   11.4674 C.3     1  UNL1        0.2058
     43 C          63.1874   80.7286   12.6679 C.3     1  UNL1        0.0532
     44 C          61.9614   80.1105   13.2719 C.3     1  UNL1        0.0455
     45 O          59.6550   80.4647   14.4142 O.co2   1  UNL1       -0.5492
     46 C          61.0504   80.9364   14.1309 C.2     1  UNL1        0.0505
     47 O          61.5348   82.2341   14.7065 O.co2   1  UNL1       -0.5492
@<TRIPOS>UNITY_ATOM_ATTR
39 1
charge -1
45 1
charge -1
@<TRIPOS>BOND
     1    45    46   ar
     2    46    47   ar
     3    46    44    1
     4    44    43    1
     5    43    42    1
     6    42    41    1
     7    41    30    1
     8    30    31   ar
     9    31    32   ar
    10    32    33   ar
    11    33    34   ar
    12    34    29    1
    13    29    28    1
    14    28    27    1
    15    27    26    1
    16    26    25    1
    17    25     1    1
    18     1     2    1
    19     2     3    1
    20     3     4   ar
    21     4     5   ar
    22     5     9    1
    23     9    10   ar
    24    10    11   ar
    25    11    12   ar
    26    12    13   ar
    27    13    14   ar
    28    13    15    1
    29    15    16    1
    30    16    17    1
    31     5     6   ar
    32     6     7   ar
    33     7    18    1
    34    18    19   ar
    35    19    20   ar
    36    20    21   ar
    37    21    22   ar
    38    22    23   ar
    39    23    24    1
    40     7     8   ar
    41    34    35   ar
    42    35    36    1
    43    36    37    1
    44    37    38    1
    45    38    39   ar
    46    38    40   ar
    47    35    30   ar
    48     8     3   ar
    49    14     9   ar
    50    23    18   ar
    51    17    12    1
@<TRIPOS>MOLECULE
*****
 47 51 0 0 0
SMALL
GASTEIGER

@<TRIPOS>ATOM
      1 C          59.7832   88.0747    7.7277 C.3     1  UNL1        0.2054
      2 O          59.5634   87.8470    9.1939 O.3     1  UNL1       -0.4755
      3 C          60.7369   87.6374   10.1045 C.ar    1  UNL1        0.1386
      4 C          61.5119   88.8169   10.6125 C.ar    1  UNL1        0.0369
      5 C          62.6854   88.6074   11.5231 C.ar    1  UNL1        0.0031
      6 C          63.0837   87.2184   11.9257 C.ar    1  UNL1        0.0003
      7 C          62.3086   86.0389   11.4177 C.ar    1  UNL1        0.0052
      8 C          61.1352   86.2484   10.5071 C.ar    1  UNL1        0.0370
      9 C          63.4605   89.7869   12.0312 C.ar    1  UNL1        0.0033
     10 C          63.7038   90.9661   11.1367 C.ar    1  UNL1        0.0033
     11 C          64.4788   92.1455   11.6447 C.ar    1  UNL1        0.0402
     12 C          65.0106   92.1458   13.0472 C.ar    1  UNL1        0.1764
     13 C          64.7673   90.9666   13.9418 C.ar    1  UNL1        0.1764
     14 C          63.9923   89.7871   13.4338 C.ar    1  UNL1        0.0402
     15 O          65.4097   91.2499   15.2673 O.3     1  UNL1       -0.4346
     16 C          66.0501   92.6042   15.1920 C.3     1  UNL1        0.4294
     17 O          65.8034   93.1580   13.8199 O.3     1  UNL1       -0.4346
     18 C          62.7070   84.6499   11.8202 C.ar    1  UNL1        0.0276
     19 C          62.4472   84.1704   13.2176 C.ar    1  UNL1        0.0022
     20 C          62.8456   82.7814   13.6201 C.ar    1  UNL1        0.0001
     21 C          63.5038   81.8720   12.6252 C.ar    1  UNL1        0.0023
     22 C          63.7636   82.3515   11.2279 C.ar    1  UNL1        0.0296
     23 C          63.3652   83.7405   10.8253 C.ar    1  UNL1        0.1401
     24 F          63.6250   84.2200    9.4280 F       1  UNL1       -0.2042
     25 C          58.8847   89.0071    6.9706 C.3     1  UNL1        0.0473
     26 C          59.4696   89.9858    5.9958 C.3     1  UNL1        0.0038
     27 C          58.5799   90.9705    5.2966 C.3     1  UNL1        0.0005
     28 C          59.1413   92.2726    4.8073 C.3     1  UNL1        0.0047
     29 C          59.3549   92.4926    3.3390 C.3     1  UNL1        0.0261
     30 C          62.3917   92.9988    0.8345 C.ar    1  UNL1        0.1342
     31 C          63.5190   92.4169    1.6347 C.ar    1  UNL1        0.0365
     32 C          63.2584   91.8602    3.0030 C.ar    1  UNL1        0.0028
     33 C          61.8704   91.8854    3.5711 C.ar    1  UNL1       -0.0044
     34 C          60.7430   92.4674    2.7709 C.ar    1  UNL1       -0.0232
     35 C          61.0036   93.0241    1.4027 C.ar    1  UNL1        0.0082
     36 C          59.8762   93.6060    0.6025 C.3     1  UNL1        0.0350
     37 C          59.6044   95.0804    0.6517 C.3     1  UNL1        0.0465
     38 C          60.4082   95.9613    1.5614 C.2     1  UNL1        0.0507
     39 O          61.7663   96.4366    1.1378 O.co2   1  UNL1       -0.5492
     40 O          59.8539   96.3670    2.8950 O.co2   1  UNL1       -0.5492
     41 O          62.6523   93.5555   -0.5337 O.3     1  UNL1       -0.4758
     42 C          64.0050   94.1074   -0.8737 C.3     1  UNL1        0.2058
     43 C          64.1264   95.2671   -1.8173 C.3     1  UNL1        0.0532
     44 C          64.5215   95.0340   -3.2454 C.3     1  UNL1        0.0455
     45 O          65.0506   92.8896   -4.6135 O.co2   1  UNL1       -0.5492
     46 C          64.0540   93.8015   -3.9613 C.2     1  UNL1        0.0505
     47 O          62.5901   93.4809   -4.0249 O.co2   1  UNL1       -0.5492
@<TRIPOS>UNITY_ATOM_ATTR
39 1
charge -1
45 1
charge -1
@<TRIPOS>BOND
     1    45    46   ar
     2    46    47   ar
     3    46    44    1
     4    44    43    1
     5    43    42    1
     6    42    41    1
     7    41    30    1
     8    30    31   ar
     9    31    32   ar
    10    32    33   ar
    11    33    34   ar
    12    34    29    1
    13    29    28    1
    14    28    27    1
    15    27    26    1
    16    26    25    1
    17    25     1    1
    18     1     2    1
    19     2     3    1
    20     3     4   ar
    21     4     5   ar
    22     5     9    1
    23     9    10   ar
    24    10    11   ar
    25    11    12   ar
    26    12    13   ar
    27    13    14   ar
    28    13    15    1
    29    15    16    1
    30    16    17    1
    31     5     6   ar
    32     6     7   ar
    33     7    18    1
    34    18    19   ar
    35    19    20   ar
    36    20    21   ar
    37    21    22   ar
    38    22    23   ar
    39    23    24    1
    40     7     8   ar
    41    34    35   ar
    42    35    36    1
    43    36    37    1
    44    37    38    1
    45    38    39   ar
    46    38    40   ar
    47    35    30   ar
    48     8     3   ar
    49    14     9   ar
    50    23    18   ar
    51    17    12    1
@<TRIPOS>MOLECULE
*****
 47 51 0 0 0
SMALL
GASTEIGER

@<TRIPOS>ATOM
      1 C          59.9124   88.8581    7.9977 C.3     1  UNL1        0.2054
      2 O          59.7859   87.7814    9.0344 O.3     1  UNL1       -0.4755
      3 C          60.8816   87.5739   10.0376 C.ar    1  UNL1        0.1386
      4 C          61.6376   88.7518   10.5769 C.ar    1  UNL1        0.0369
      5 C          62.7333   88.5443   11.5801 C.ar    1  UNL1        0.0031
      6 C          63.0730   87.1589   12.0440 C.ar    1  UNL1        0.0003
      7 C          62.3170   85.9810   11.5047 C.ar    1  UNL1        0.0052
      8 C          61.2213   86.1884   10.5015 C.ar    1  UNL1        0.0370
      9 C          63.4894   89.7224   12.1194 C.ar    1  UNL1        0.0033
     10 C          63.7740   90.8997   11.2348 C.ar    1  UNL1        0.0033
     11 C          64.5300   92.0777   11.7741 C.ar    1  UNL1        0.0402
     12 C          65.0015   92.0782   13.1981 C.ar    1  UNL1        0.1764
     13 C          64.7169   90.9008   14.0828 C.ar    1  UNL1        0.1764
     14 C          63.9609   89.7228   13.5435 C.ar    1  UNL1        0.0402
     15 O          65.3029   91.1840   15.4342 O.3     1  UNL1       -0.4346
     16 C          65.9497   92.5365   15.3847 C.3     1  UNL1        0.4294
     17 O          65.7634   93.0891   14.0027 O.3     1  UNL1       -0.4346
     18 C          62.6567   84.5955   11.9686 C.ar    1  UNL1        0.0276
     19 C          62.3737   84.1881   13.3842 C.ar    1  UNL1        0.0022
     20 C          62.7135   82.8026   13.8480 C.ar    1  UNL1        0.0001
     21 C          63.3361   81.8247   12.8963 C.ar    1  UNL1        0.0023
     22 C          63.6190   82.2321   11.4807 C.ar    1  UNL1        0.0296
     23 C          63.2794   83.6175   11.0168 C.ar    1  UNL1        0.1401
     24 F          63.5623   84.0249    9.6012 F       1  UNL1       -0.2042
     25 C          59.0179   88.8486    6.7936 C.3     1  UNL1        0.0473
     26 C          58.6809   90.1350    6.0996 C.3     1  UNL1        0.0038
     27 C          59.6790   90.7753    5.1809 C.3     1  UNL1        0.0005
     28 C          59.4619   92.1792    4.6991 C.3     1  UNL1        0.0047
     29 C          59.4874   92.4802    3.2299 C.3     1  UNL1        0.0261
     30 C          62.1520   93.5008    0.4715 C.ar    1  UNL1        0.1342
     31 C          63.4207   93.0204    1.1116 C.ar    1  UNL1        0.0365
     32 C          63.3783   92.3600    2.4577 C.ar    1  UNL1        0.0028
     33 C          62.0673   92.1799    3.1638 C.ar    1  UNL1       -0.0044
     34 C          60.7986   92.6603    2.5237 C.ar    1  UNL1       -0.0232
     35 C          60.8409   93.3206    1.1777 C.ar    1  UNL1        0.0082
     36 C          59.5722   93.8009    0.5376 C.3     1  UNL1        0.0350
     37 C          58.8176   92.9035   -0.3980 C.3     1  UNL1        0.0465
     38 C          57.4314   93.2723   -0.8362 C.2     1  UNL1        0.0507
     39 O          56.4813   92.2062   -1.2953 O.co2   1  UNL1       -0.5492
     40 O          56.9950   94.7074   -0.8154 O.co2   1  UNL1       -0.5492
     41 O          62.1944   94.1611   -0.8746 O.3     1  UNL1       -0.4758
     42 C          62.1918   93.3256   -2.1203 C.3     1  UNL1        0.2058
     43 C          61.6561   93.8916   -3.4020 C.3     1  UNL1        0.0532
     44 C          61.1865   95.3152   -3.4548 C.3     1  UNL1        0.0455
     45 O          58.6009   95.2363   -3.6970 O.co2   1  UNL1       -0.5492
     46 C          59.8224   95.6744   -2.9447 C.2     1  UNL1        0.0505
     47 O          59.6798   96.4718   -1.6822 O.co2   1  UNL1       -0.5492
@<TRIPOS>UNITY_ATOM_ATTR
39 1
charge -1
45 1
charge -1
@<TRIPOS>BOND
     1    45    46   ar
     2    46    47   ar
     3    46    44    1
     4    44    43    1
     5    43    42    1
     6    42    41    1
     7    41    30    1
     8    30    31   ar
     9    31    32   ar
    10    32    33   ar
    11    33    34   ar
    12    34    29    1
    13    29    28    1
    14    28    27    1
    15    27    26    1
    16    26    25    1
    17    25     1    1
    18     1     2    1
    19     2     3    1
    20     3     4   ar
    21     4     5   ar
    22     5     9    1
    23     9    10   ar
    24    10    11   ar
    25    11    12   ar
    26    12    13   ar
    27    13    14   ar
    28    13    15    1
    29    15    16    1
    30    16    17    1
    31     5     6   ar
    32     6     7   ar
    33     7    18    1
    34    18    19   ar
    35    19    20   ar
    36    20    21   ar
    37    21    22   ar
    38    22    23   ar
    39    23    24    1
    40     7     8   ar
    41    34    35   ar
    42    35    36    1
    43    36    37    1
    44    37    38    1
    45    38    39   ar
    46    38    40   ar
    47    35    30   ar
    48     8     3   ar
    49    14     9   ar
    50    23    18   ar
    51    17    12    1
@<TRIPOS>MOLECULE
*****
 47 51 0 0 0
SMALL
GASTEIGER

@<TRIPOS>ATOM
      1 C          63.6346   90.8266   16.2143 C.3     1  UNL1        0.2054
      2 O          64.5586   91.6210   15.3395 O.3     1  UNL1       -0.4755
      3 C          64.4075   91.5702   13.8479 C.ar    1  UNL1        0.1386
      4 C          63.2476   90.8420   13.2360 C.ar    1  UNL1        0.0369
      5 C          63.0965   90.7913   11.7445 C.ar    1  UNL1        0.0031
      6 C          64.1051   91.4688   10.8649 C.ar    1  UNL1        0.0003
      7 C          65.2650   92.1970   11.4769 C.ar    1  UNL1        0.0052
      8 C          65.4161   92.2477   12.9683 C.ar    1  UNL1        0.0370
      9 C          61.9365   90.0631   11.1325 C.ar    1  UNL1        0.0033
     10 C          60.6896   89.8315   11.9333 C.ar    1  UNL1        0.0033
     11 C          59.5297   89.1033   11.3213 C.ar    1  UNL1        0.0402
     12 C          59.6169   88.6067    9.9086 C.ar    1  UNL1        0.1764
     13 C          60.8639   88.8383    9.1078 C.ar    1  UNL1        0.1764
     14 C          62.0238   89.5665    9.7197 C.ar    1  UNL1        0.0402
     15 O          60.6604   88.2373    7.7486 O.3     1  UNL1       -0.4346
     16 C          59.2875   87.6343    7.7094 C.3     1  UNL1        0.4294
     17 O          58.6426   87.8626    9.0443 O.3     1  UNL1       -0.4346
     18 C          66.2736   92.8744   10.5973 C.ar    1  UNL1        0.0276
     19 C          67.4461   92.1027   10.0684 C.ar    1  UNL1        0.0022
     20 C          68.4548   92.7803    9.1889 C.ar    1  UNL1        0.0001
     21 C          68.2909   94.2294    8.8382 C.ar    1  UNL1        0.0023
     22 C          67.1184   95.0011    9.3670 C.ar    1  UNL1        0.0296
     23 C          66.1097   94.3237   10.2466 C.ar    1  UNL1        0.1401
     24 F          64.9372   95.0954   10.7754 F       1  UNL1       -0.2042
     25 C          63.8101   89.3420   16.3375 C.3     1  UNL1        0.0473
     26 C          62.7449   88.5127   16.9914 C.3     1  UNL1        0.0038
     27 C          63.1037   87.2114   17.6457 C.3     1  UNL1        0.0005
     28 C          62.9417   85.9239   16.8933 C.3     1  UNL1        0.0047
     29 C          63.9338   85.5442   15.8343 C.3     1  UNL1        0.0261
     30 C          62.9966   84.8789   12.0356 C.ar    1  UNL1        0.1342
     31 C          62.9867   86.2787   11.4968 C.ar    1  UNL1        0.0365
     32 C          63.2925   87.4337   12.4037 C.ar    1  UNL1        0.0028
     33 C          63.6081   87.1889   13.8495 C.ar    1  UNL1       -0.0044
     34 C          63.6181   85.7891   14.3884 C.ar    1  UNL1       -0.0232
     35 C          63.3123   84.6341   13.4815 C.ar    1  UNL1        0.0082
     36 C          63.3222   83.2343   14.0204 C.3     1  UNL1        0.0350
     37 C          62.0456   82.6025   14.4907 C.3     1  UNL1        0.0465
     38 C          61.5968   81.2951   13.9085 C.2     1  UNL1        0.0507
     39 O          62.4178   80.6258   12.8464 O.co2   1  UNL1       -0.5492
     40 O          60.3269   80.6568   14.3883 O.co2   1  UNL1       -0.5492
     41 O          62.6908   83.7239   11.1287 O.3     1  UNL1       -0.4758
     42 C          63.5270   83.4889    9.9057 C.3     1  UNL1        0.2058
     43 C          63.5777   84.5242    8.8216 C.3     1  UNL1        0.0532
     44 C          62.3060   85.1134    8.2870 C.3     1  UNL1        0.0455
     45 O          60.3995   84.7201    6.5665 O.co2   1  UNL1       -0.5492
     46 C          61.8622   84.7972    6.8895 C.2     1  UNL1        0.0505
     47 O          62.8812   84.5581    5.8151 O.co2   1  UNL1       -0.5492
@<TRIPOS>UNITY_ATOM_ATTR
39 1
charge -1
45 1
charge -1
@<TRIPOS>BOND
     1    45    46   ar
     2    46    47   ar
     3    46    44    1
     4    44    43    1
     5    43    42    1
     6    42    41    1
     7    41    30    1
     8    30    31   ar
     9    31    32   ar
    10    32    33   ar
    11    33    34   ar
    12    34    29    1
    13    29    28    1
    14    28    27    1
    15    27    26    1
    16    26    25    1
    17    25     1    1
    18     1     2    1
    19     2     3    1
    20     3     4   ar
    21     4     5   ar
    22     5     9    1
    23     9    10   ar
    24    10    11   ar
    25    11    12   ar
    26    12    13   ar
    27    13    14   ar
    28    13    15    1
    29    15    16    1
    30    16    17    1
    31     5     6   ar
    32     6     7   ar
    33     7    18    1
    34    18    19   ar
    35    19    20   ar
    36    20    21   ar
    37    21    22   ar
    38    22    23   ar
    39    23    24    1
    40     7     8   ar
    41    34    35   ar
    42    35    36    1
    43    36    37    1
    44    37    38    1
    45    38    39   ar
    46    38    40   ar
    47    35    30   ar
    48     8     3   ar
    49    14     9   ar
    50    23    18   ar
    51    17    12    1
