@<TRIPOS>MOLECULE
*****
 34 38 0 0 0
SMALL
GASTEIGER

@<TRIPOS>ATOM
      1 C          63.5353   90.5342   13.1801 C.ar    1  UNL1        0.0007
      2 C          64.4477   91.3284   12.2932 C.ar    1  UNL1       -0.0025
      3 C          64.0485   91.6227   10.8775 C.ar    1  UNL1        0.0010
      4 C          62.7368   91.1226   10.3488 C.ar    1  UNL1        0.0146
      5 C          61.8244   90.3284   11.2358 C.ar    1  UNL1        0.0481
      6 C          62.2237   90.0342   12.6514 C.ar    1  UNL1        0.0121
      7 N          60.5127   89.8283   10.7071 N.pl3   1  UNL1       -0.3125
      8 H          59.6711   90.2403   11.0089 H       1  UNL1        0.1522
      9 C          60.4835   88.7005    9.7186 C.ar    1  UNL1        0.0513
     10 C          59.7334   88.8531    8.4286 C.ar    1  UNL1        0.0353
     11 C          59.7041   87.7253    7.4402 C.ar    1  UNL1        0.1001
     12 N          60.4250   86.4448    7.7416 N.ar    1  UNL1       -0.2437
     13 C          61.1751   86.2922    9.0316 C.ar    1  UNL1        0.0833
     14 C          61.8960   85.0118    9.3330 C.ar    1  UNL1        0.0305
     15 C          62.6461   84.8592   10.6230 C.ar    1  UNL1        0.0592
     16 CL         63.3669   83.5788   10.9244 Cl      1  UNL1       -0.0822
     17 C          62.6753   85.9871   11.6115 C.ar    1  UNL1        0.0115
     18 C          61.9545   87.2675   11.3101 C.ar    1  UNL1        0.0036
     19 C          61.2043   87.4200   10.0200 C.ar    1  UNL1        0.0312
     20 C          63.9346   90.2400   14.5958 C.3     1  UNL1        0.1412
     21 N          65.6473   92.1369   15.3791 N.ar    1  UNL1       -0.2192
     22 N          65.6757   93.1488   16.4860 N.ar    1  UNL1       -0.0432
     23 N          64.4188   92.9922   17.2896 N.ar    1  UNL1       -0.0229
     24 N          63.6135   91.8835   16.6793 N.ar    1  UNL1       -0.1110
     25 C          64.3729   91.3549   15.4986 C.ar    1  UNL1        0.1794
     26 C          67.0293   90.5958   14.9154 C.3     1  UNL1        0.0245
     27 C          66.7073   91.9413   14.3360 C.3     1  UNL1        0.0896
     28 C          66.3851   93.2868   13.7565 C.3     1  UNL1        0.0245
     29 C          67.7672   91.7458   13.2928 C.3     1  UNL1        0.0245
     30 N          63.8956   88.8310   15.1086 N.3     1  UNL1       -0.2643
     31 C          63.2688   88.3775   16.3938 C.3     1  UNL1        0.0728
     32 C          63.4623   86.8943   16.5058 C.3     1  UNL1        0.0188
     33 C          64.2087   86.4311   15.2899 C.3     1  UNL1        0.0188
     34 C          64.4764   87.6280   14.4264 C.3     1  UNL1        0.0728
@<TRIPOS>BOND
     1    26    27    1
     2    27    28    1
     3    27    29    1
     4    27    21    1
     5    21    22   ar
     6    22    23   ar
     7    23    24   ar
     8    24    25   ar
     9    25    20    1
    10    20     1    1
    11     1     2   ar
    12     2     3   ar
    13     3     4   ar
    14     4     5   ar
    15     5     7    1
    16     7     9    1
    17     9    10   ar
    18    10    11   ar
    19    11    12   ar
    20    12    13   ar
    21    13    14   ar
    22    14    15   ar
    23    15    16    1
    24    15    17   ar
    25    17    18   ar
    26    18    19   ar
    27     5     6   ar
    28    20    30    1
    29    30    31    1
    30    31    32    1
    31    32    33    1
    32    33    34    1
    33    25    21   ar
    34     6     1   ar
    35    34    30    1
    36    19     9   ar
    37    19    13   ar
    38     7     8    1
@<TRIPOS>MOLECULE
*****
 34 38 0 0 0
SMALL
GASTEIGER

@<TRIPOS>ATOM
      1 C          63.4226   89.8796   13.1924 C.ar    1  UNL1        0.0007
      2 C          63.8410   91.0684   12.3789 C.ar    1  UNL1       -0.0025
      3 C          63.4462   91.1657   10.9350 C.ar    1  UNL1        0.0010
      4 C          62.6330   90.0742   10.3047 C.ar    1  UNL1        0.0146
      5 C          62.2146   88.8854   11.1182 C.ar    1  UNL1        0.0481
      6 C          62.6094   88.7881   12.5620 C.ar    1  UNL1        0.0121
      7 N          61.4013   87.7939   10.4879 N.pl3   1  UNL1       -0.3125
      8 H          60.4232   87.8843   10.4220 H       1  UNL1        0.1522
      9 C          62.0785   86.5648    9.9580 C.ar    1  UNL1        0.0513
     10 C          62.3702   86.4423    8.4917 C.ar    1  UNL1        0.0353
     11 C          63.0472   85.2132    7.9619 C.ar    1  UNL1        0.1001
     12 N          63.4326   84.1065    8.8983 N.ar    1  UNL1       -0.2437
     13 C          63.1409   84.2290   10.3645 C.ar    1  UNL1        0.0833
     14 C          63.5263   83.1223   11.3009 C.ar    1  UNL1        0.0305
     15 C          63.2346   83.2448   12.7671 C.ar    1  UNL1        0.0592
     16 CL         63.6200   82.1382   13.7035 Cl      1  UNL1       -0.0822
     17 C          62.5575   84.4740   13.2970 C.ar    1  UNL1        0.0115
     18 C          62.1721   85.5806   12.3606 C.ar    1  UNL1        0.0036
     19 C          62.4638   85.4581   10.8943 C.ar    1  UNL1        0.0312
     20 C          63.8174   89.7823   14.6363 C.3     1  UNL1        0.1412
     21 N          65.3820   91.8878   15.1502 N.ar    1  UNL1       -0.2192
     22 N          65.3542   93.0131   16.1417 N.ar    1  UNL1       -0.0432
     23 N          64.1383   92.8418   17.0032 N.ar    1  UNL1       -0.0229
     24 N          63.4145   91.6107   16.5442 N.ar    1  UNL1       -0.1110
     25 C          64.1832   91.0211   15.3989 C.ar    1  UNL1        0.1794
     26 C          65.9288   92.8730   13.3529 C.3     1  UNL1        0.0245
     27 C          66.4254   91.6679   14.0952 C.3     1  UNL1        0.0896
     28 C          66.9219   90.4628   14.8376 C.3     1  UNL1        0.0245
     29 C          67.4687   91.4479   13.0403 C.3     1  UNL1        0.0245
     30 N          63.8464   88.4463   15.3175 N.3     1  UNL1       -0.2643
     31 C          64.5714   87.2254   14.8337 C.3     1  UNL1        0.0728
     32 C          64.3285   86.1211   15.8193 C.3     1  UNL1        0.0188
     33 C          63.4533   86.6594   16.9122 C.3     1  UNL1        0.0188
     34 C          63.1554   88.0964   16.6021 C.3     1  UNL1        0.0728
@<TRIPOS>BOND
     1    26    27    1
     2    27    28    1
     3    27    29    1
     4    27    21    1
     5    21    22   ar
     6    22    23   ar
     7    23    24   ar
     8    24    25   ar
     9    25    20    1
    10    20     1    1
    11     1     2   ar
    12     2     3   ar
    13     3     4   ar
    14     4     5   ar
    15     5     7    1
    16     7     9    1
    17     9    10   ar
    18    10    11   ar
    19    11    12   ar
    20    12    13   ar
    21    13    14   ar
    22    14    15   ar
    23    15    16    1
    24    15    17   ar
    25    17    18   ar
    26    18    19   ar
    27     5     6   ar
    28    20    30    1
    29    30    31    1
    30    31    32    1
    31    32    33    1
    32    33    34    1
    33    25    21   ar
    34     6     1   ar
    35    34    30    1
    36    19     9   ar
    37    19    13   ar
    38     7     8    1
@<TRIPOS>MOLECULE
*****
 34 38 0 0 0
SMALL
GASTEIGER

@<TRIPOS>ATOM
      1 C          62.3887   86.0627   11.5855 C.ar    1  UNL1        0.0007
      2 C          61.6641   85.7976   10.2992 C.ar    1  UNL1       -0.0025
      3 C          60.9918   86.9237    9.5712 C.ar    1  UNL1        0.0010
      4 C          61.0441   88.3149   10.1296 C.ar    1  UNL1        0.0146
      5 C          61.7687   88.5800   11.4160 C.ar    1  UNL1        0.0481
      6 C          62.4410   87.4539   12.1439 C.ar    1  UNL1        0.0121
      7 N          61.8210   89.9712   11.9744 N.pl3   1  UNL1       -0.3125
      8 H          61.0697   90.3155   12.5093 H       1  UNL1        0.1522
      9 C          63.0182   90.8379   11.7177 C.ar    1  UNL1        0.0513
     10 C          63.3083   91.3240   10.3287 C.ar    1  UNL1        0.0353
     11 C          64.5054   92.1906   10.0721 C.ar    1  UNL1        0.1001
     12 N          65.4124   92.5711   11.2046 N.ar    1  UNL1       -0.2437
     13 C          65.1224   92.0850   12.5936 C.ar    1  UNL1        0.0833
     14 C          66.0294   92.4655   13.7261 C.ar    1  UNL1        0.0305
     15 C          65.7393   91.9794   15.1152 C.ar    1  UNL1        0.0592
     16 CL         66.6463   92.3599   16.2476 Cl      1  UNL1       -0.0822
     17 C          64.5421   91.1128   15.3718 C.ar    1  UNL1        0.0115
     18 C          63.6351   90.7323   14.2393 C.ar    1  UNL1        0.0036
     19 C          63.9252   91.2184   12.8502 C.ar    1  UNL1        0.0312
     20 C          63.0610   84.9366   12.3135 C.3     1  UNL1        0.1412
     21 N          63.5238   82.3324   11.9278 N.ar    1  UNL1       -0.2192
     22 N          64.2289   81.5243   10.8790 N.ar    1  UNL1       -0.0432
     23 N          64.7680   82.4717    9.8486 N.ar    1  UNL1       -0.0229
     24 N          64.3962   83.8653   10.2605 N.ar    1  UNL1       -0.1110
     25 C          63.6272   83.7791   11.5456 C.ar    1  UNL1        0.1794
     26 C          61.5180   81.8614   12.4328 C.3     1  UNL1        0.0245
     27 C          62.8360   81.7890   13.1451 C.3     1  UNL1        0.0896
     28 C          64.1542   81.7166   13.8574 C.3     1  UNL1        0.0245
     29 C          62.1485   81.2456   14.3624 C.3     1  UNL1        0.0245
     30 N          63.1671   84.9680   13.8094 N.3     1  UNL1       -0.2643
     31 C          64.3943   85.3149   14.5992 C.3     1  UNL1        0.0728
     32 C          64.0503   85.2193   16.0561 C.3     1  UNL1        0.0188
     33 C          62.6105   84.8132   16.1667 C.3     1  UNL1        0.0188
     34 C          62.0647   84.6579   14.7782 C.3     1  UNL1        0.0728
@<TRIPOS>BOND
     1    26    27    1
     2    27    28    1
     3    27    29    1
     4    27    21    1
     5    21    22   ar
     6    22    23   ar
     7    23    24   ar
     8    24    25   ar
     9    25    20    1
    10    20     1    1
    11     1     2   ar
    12     2     3   ar
    13     3     4   ar
    14     4     5   ar
    15     5     7    1
    16     7     9    1
    17     9    10   ar
    18    10    11   ar
    19    11    12   ar
    20    12    13   ar
    21    13    14   ar
    22    14    15   ar
    23    15    16    1
    24    15    17   ar
    25    17    18   ar
    26    18    19   ar
    27     5     6   ar
    28    20    30    1
    29    30    31    1
    30    31    32    1
    31    32    33    1
    32    33    34    1
    33    25    21   ar
    34     6     1   ar
    35    34    30    1
    36    19     9   ar
    37    19    13   ar
    38     7     8    1
@<TRIPOS>MOLECULE
*****
 34 38 0 0 0
SMALL
GASTEIGER

@<TRIPOS>ATOM
      1 C          63.6520   90.8003   11.6597 C.ar    1  UNL1        0.0007
      2 C          63.0394   91.3029   10.3861 C.ar    1  UNL1       -0.0025
      3 C          62.1144   90.4216    9.6000 C.ar    1  UNL1        0.0010
      4 C          61.8021   89.0378   10.0875 C.ar    1  UNL1        0.0146
      5 C          62.4149   88.5353   11.3612 C.ar    1  UNL1        0.0481
      6 C          63.3398   89.4165   12.1472 C.ar    1  UNL1        0.0121
      7 N          62.1026   87.1516   11.8487 N.pl3   1  UNL1       -0.3125
      8 H          61.5997   87.0263   12.6858 H       1  UNL1        0.1522
      9 C          62.5566   85.9585   11.0608 C.ar    1  UNL1        0.0513
     10 C          62.7042   86.0554    9.5713 C.ar    1  UNL1        0.0353
     11 C          63.1582   84.8624    8.7835 C.ar    1  UNL1        0.1001
     12 N          63.4645   83.5726    9.4853 N.ar    1  UNL1       -0.2437
     13 C          63.3169   83.4757   10.9748 C.ar    1  UNL1        0.0833
     14 C          63.6232   82.1858   11.6765 C.ar    1  UNL1        0.0305
     15 C          63.4755   82.0890   13.1661 C.ar    1  UNL1        0.0592
     16 CL         63.7818   80.7991   13.8678 Cl      1  UNL1       -0.0822
     17 C          63.0215   83.2820   13.9540 C.ar    1  UNL1        0.0115
     18 C          62.7152   84.5718   13.2522 C.ar    1  UNL1        0.0036
     19 C          62.8629   84.6687   11.7626 C.ar    1  UNL1        0.0312
     20 C          64.5770   91.6815   12.4458 C.3     1  UNL1        0.1412
     21 N          65.6190   92.0113   14.8852 N.ar    1  UNL1       -0.2192
     22 N          65.0863   91.9349   16.2853 N.ar    1  UNL1       -0.0432
     23 N          63.6286   91.5897   16.2085 N.ar    1  UNL1       -0.0229
     24 N          63.2603   91.4528   14.7608 N.ar    1  UNL1       -0.1110
     25 C          64.4905   91.7134   13.9430 C.ar    1  UNL1        0.1794
     26 C          66.7314   93.7953   14.6029 C.3     1  UNL1        0.0245
     27 C          67.0321   92.3298   14.4956 C.3     1  UNL1        0.0896
     28 C          67.3328   90.8641   14.3884 C.3     1  UNL1        0.0245
     29 C          68.4452   92.6481   14.1061 C.3     1  UNL1        0.0245
     30 N          65.5884   92.5309   11.7347 N.3     1  UNL1       -0.2643
     31 C          66.7790   92.0312   10.9713 C.3     1  UNL1        0.0728
     32 C          67.5132   93.2206   10.4270 C.3     1  UNL1        0.0188
     33 C          66.7763   94.4554   10.8540 C.3     1  UNL1        0.0188
     34 C          65.5868   94.0291   11.6622 C.3     1  UNL1        0.0728
@<TRIPOS>BOND
     1    26    27    1
     2    27    28    1
     3    27    29    1
     4    27    21    1
     5    21    22   ar
     6    22    23   ar
     7    23    24   ar
     8    24    25   ar
     9    25    20    1
    10    20     1    1
    11     1     2   ar
    12     2     3   ar
    13     3     4   ar
    14     4     5   ar
    15     5     7    1
    16     7     9    1
    17     9    10   ar
    18    10    11   ar
    19    11    12   ar
    20    12    13   ar
    21    13    14   ar
    22    14    15   ar
    23    15    16    1
    24    15    17   ar
    25    17    18   ar
    26    18    19   ar
    27     5     6   ar
    28    20    30    1
    29    30    31    1
    30    31    32    1
    31    32    33    1
    32    33    34    1
    33    25    21   ar
    34     6     1   ar
    35    34    30    1
    36    19     9   ar
    37    19    13   ar
    38     7     8    1
@<TRIPOS>MOLECULE
*****
 34 38 0 0 0
SMALL
GASTEIGER

@<TRIPOS>ATOM
      1 C          62.3293   86.0501   11.5347 C.ar    1  UNL1        0.0007
      2 C          61.4953   85.7197   10.3326 C.ar    1  UNL1       -0.0025
      3 C          60.7942   86.8134    9.5826 C.ar    1  UNL1        0.0010
      4 C          60.9272   88.2374   10.0348 C.ar    1  UNL1        0.0146
      5 C          61.7613   88.5677   11.2370 C.ar    1  UNL1        0.0481
      6 C          62.4624   87.4741   11.9869 C.ar    1  UNL1        0.0121
      7 N          61.8943   89.9917   11.6892 N.pl3   1  UNL1       -0.3125
      8 H          61.2482   90.6681   11.3822 H       1  UNL1        0.1522
      9 C          63.0118   90.3852   12.6093 C.ar    1  UNL1        0.0513
     10 C          63.0609   89.8398   14.0057 C.ar    1  UNL1        0.0353
     11 C          64.1784   90.2332   14.9257 C.ar    1  UNL1        0.1001
     12 N          65.2468   91.1721   14.4492 N.ar    1  UNL1       -0.2437
     13 C          65.1977   91.7176   13.0528 C.ar    1  UNL1        0.0833
     14 C          66.2661   92.6565   12.5763 C.ar    1  UNL1        0.0305
     15 C          66.2170   93.2019   11.1799 C.ar    1  UNL1        0.0592
     16 CL         67.2854   94.1408   10.7035 Cl      1  UNL1       -0.0822
     17 C          65.0995   92.8084   10.2599 C.ar    1  UNL1        0.0115
     18 C          64.0311   91.8695   10.7363 C.ar    1  UNL1        0.0036
     19 C          64.0802   91.3241   12.1328 C.ar    1  UNL1        0.0312
     20 C          63.0304   84.9564   12.2847 C.3     1  UNL1        0.1412
     21 N          63.5100   82.3479   11.9514 N.ar    1  UNL1       -0.2192
     22 N          64.2244   81.5239   10.9215 N.ar    1  UNL1       -0.0432
     23 N          64.7627   82.4544    9.8753 N.ar    1  UNL1       -0.0229
     24 N          64.3810   83.8535   10.2586 N.ar    1  UNL1       -0.1110
     25 C          63.6067   83.7877   11.5418 C.ar    1  UNL1        0.1794
     26 C          61.5101   81.8417   12.4454 C.3     1  UNL1        0.0245
     27 C          62.8200   81.8241   13.1759 C.3     1  UNL1        0.0896
     28 C          64.1300   81.8065   13.9064 C.3     1  UNL1        0.0245
     29 C          62.1301   81.3003   14.4005 C.3     1  UNL1        0.0245
     30 N          63.1552   85.0315   13.7776 N.3     1  UNL1       -0.2643
     31 C          62.0805   84.6997   14.7700 C.3     1  UNL1        0.0728
     32 C          62.6377   84.9147   16.1460 C.3     1  UNL1        0.0188
     33 C          64.0569   85.3793   16.0039 C.3     1  UNL1        0.0188
     34 C          64.3767   85.4515   14.5402 C.3     1  UNL1        0.0728
@<TRIPOS>BOND
     1    26    27    1
     2    27    28    1
     3    27    29    1
     4    27    21    1
     5    21    22   ar
     6    22    23   ar
     7    23    24   ar
     8    24    25   ar
     9    25    20    1
    10    20     1    1
    11     1     2   ar
    12     2     3   ar
    13     3     4   ar
    14     4     5   ar
    15     5     7    1
    16     7     9    1
    17     9    10   ar
    18    10    11   ar
    19    11    12   ar
    20    12    13   ar
    21    13    14   ar
    22    14    15   ar
    23    15    16    1
    24    15    17   ar
    25    17    18   ar
    26    18    19   ar
    27     5     6   ar
    28    20    30    1
    29    30    31    1
    30    31    32    1
    31    32    33    1
    32    33    34    1
    33    25    21   ar
    34     6     1   ar
    35    34    30    1
    36    19     9   ar
    37    19    13   ar
    38     7     8    1
@<TRIPOS>MOLECULE
*****
 34 38 0 0 0
SMALL
GASTEIGER

@<TRIPOS>ATOM
      1 C          62.4389   86.0450   11.6812 C.ar    1  UNL1        0.0007
      2 C          62.2578   85.9006   10.1992 C.ar    1  UNL1       -0.0025
      3 C          62.0669   87.1186    9.3447 C.ar    1  UNL1        0.0010
      4 C          62.0572   88.4810    9.9722 C.ar    1  UNL1        0.0146
      5 C          62.2383   88.6254   11.4543 C.ar    1  UNL1        0.0481
      6 C          62.4292   87.4074   12.3087 C.ar    1  UNL1        0.0121
      7 N          62.2286   89.9878   12.0818 N.pl3   1  UNL1       -0.3125
      8 H          61.4743   90.2617   12.6522 H       1  UNL1        0.1522
      9 C          63.3682   90.9329   11.8404 C.ar    1  UNL1        0.0513
     10 C          63.6326   91.4512   10.4578 C.ar    1  UNL1        0.0353
     11 C          64.7721   92.3962   10.2164 C.ar    1  UNL1        0.1001
     12 N          65.6472   92.8230   11.3576 N.ar    1  UNL1       -0.2437
     13 C          65.3827   92.3048   12.7401 C.ar    1  UNL1        0.0833
     14 C          66.2578   92.7316   13.8812 C.ar    1  UNL1        0.0305
     15 C          65.9933   92.2133   15.2637 C.ar    1  UNL1        0.0592
     16 CL         66.8683   92.6401   16.4048 Cl      1  UNL1       -0.0822
     17 C          64.8537   91.2682   15.5052 C.ar    1  UNL1        0.0115
     18 C          63.9787   90.8414   14.3641 C.ar    1  UNL1        0.0036
     19 C          64.2432   91.3597   12.9815 C.ar    1  UNL1        0.0312
     20 C          62.6298   84.8270   12.5357 C.3     1  UNL1        0.1412
     21 N          63.5617   85.0235   15.0333 N.ar    1  UNL1       -0.2192
     22 N          62.9381   85.0930   16.3958 N.ar    1  UNL1       -0.0432
     23 N          61.4488   85.0324   16.2274 N.ar    1  UNL1       -0.0229
     24 N          61.1520   84.9254   14.7609 N.ar    1  UNL1       -0.1110
     25 C          62.4579   84.9199   14.0229 C.ar    1  UNL1        0.1794
     26 C          65.0260   86.5477   14.8526 C.3     1  UNL1        0.0245
     27 C          65.0313   85.0525   14.7339 C.3     1  UNL1        0.0896
     28 C          65.0365   83.5572   14.6152 C.3     1  UNL1        0.0245
     29 C          66.5007   85.0813   14.4344 C.3     1  UNL1        0.0245
     30 N          62.9926   83.5163   11.9030 N.3     1  UNL1       -0.2643
     31 C          63.9765   83.3177   10.7883 C.3     1  UNL1        0.0728
     32 C          64.0271   81.8527   10.4703 C.3     1  UNL1        0.0188
     33 C          63.0745   81.1459   11.3884 C.3     1  UNL1        0.0188
     34 C          62.4351   82.1741   12.2739 C.3     1  UNL1        0.0728
@<TRIPOS>BOND
     1    26    27    1
     2    27    28    1
     3    27    29    1
     4    27    21    1
     5    21    22   ar
     6    22    23   ar
     7    23    24   ar
     8    24    25   ar
     9    25    20    1
    10    20     1    1
    11     1     2   ar
    12     2     3   ar
    13     3     4   ar
    14     4     5   ar
    15     5     7    1
    16     7     9    1
    17     9    10   ar
    18    10    11   ar
    19    11    12   ar
    20    12    13   ar
    21    13    14   ar
    22    14    15   ar
    23    15    16    1
    24    15    17   ar
    25    17    18   ar
    26    18    19   ar
    27     5     6   ar
    28    20    30    1
    29    30    31    1
    30    31    32    1
    31    32    33    1
    32    33    34    1
    33    25    21   ar
    34     6     1   ar
    35    34    30    1
    36    19     9   ar
    37    19    13   ar
    38     7     8    1
@<TRIPOS>MOLECULE
*****
 34 38 0 0 0
SMALL
GASTEIGER

@<TRIPOS>ATOM
      1 C          64.9684   92.2214   11.8131 C.ar    1  UNL1        0.0007
      2 C          64.3617   92.5254   10.4754 C.ar    1  UNL1       -0.0025
      3 C          63.3435   91.5955    9.8849 C.ar    1  UNL1        0.0010
      4 C          62.9321   90.3616   10.6321 C.ar    1  UNL1        0.0146
      5 C          63.5389   90.0577   11.9698 C.ar    1  UNL1        0.0481
      6 C          64.5570   90.9875   12.5603 C.ar    1  UNL1        0.0121
      7 N          63.1275   88.8238   12.7170 N.pl3   1  UNL1       -0.3125
      8 H          63.1701   88.8067   13.7004 H       1  UNL1        0.1522
      9 C          62.6511   87.6159   11.9658 C.ar    1  UNL1        0.0513
     10 C          61.8473   87.7824   10.7103 C.ar    1  UNL1        0.0353
     11 C          61.3710   86.5746    9.9592 C.ar    1  UNL1        0.1001
     12 N          61.6984   85.2003   10.4635 N.ar    1  UNL1       -0.2437
     13 C          62.5021   85.0339   11.7190 C.ar    1  UNL1        0.0833
     14 C          62.8295   83.6597   12.2233 C.ar    1  UNL1        0.0305
     15 C          63.6332   83.4933   13.4788 C.ar    1  UNL1        0.0592
     16 CL         63.9606   82.1191   13.9831 Cl      1  UNL1       -0.0822
     17 C          64.1096   84.7011   14.2300 C.ar    1  UNL1        0.0115
     18 C          63.7822   86.0754   13.7257 C.ar    1  UNL1        0.0036
     19 C          62.9785   86.2417   12.4701 C.ar    1  UNL1        0.0312
     20 C          65.9866   93.1513   12.4036 C.3     1  UNL1        0.1412
     21 N          67.1571   94.5414   10.4434 N.ar    1  UNL1       -0.2192
     22 N          67.2583   95.9953   10.0885 N.ar    1  UNL1       -0.0432
     23 N          66.5024   96.7781   11.1208 N.ar    1  UNL1       -0.0229
     24 N          65.9339   95.8080   12.1138 N.ar    1  UNL1       -0.1110
     25 C          66.3387   94.4256   11.6950 C.ar    1  UNL1        0.1794
     26 C          67.2327   93.9742    8.4007 C.3     1  UNL1        0.0245
     27 C          67.7673   93.4031    9.6805 C.3     1  UNL1        0.0896
     28 C          68.3020   92.8321   10.9604 C.3     1  UNL1        0.0245
     29 C          68.3776   92.2648    8.9177 C.3     1  UNL1        0.0245
     30 N          66.6528   92.8067   13.7026 N.3     1  UNL1       -0.2643
     31 C          66.4501   93.5110   15.0114 C.3     1  UNL1        0.0728
     32 C          67.3106   92.8370   16.0386 C.3     1  UNL1        0.0188
     33 C          68.0452   91.7161   15.3647 C.3     1  UNL1        0.0188
     34 C          67.6386   91.6975   13.9209 C.3     1  UNL1        0.0728
@<TRIPOS>BOND
     1    26    27    1
     2    27    28    1
     3    27    29    1
     4    27    21    1
     5    21    22   ar
     6    22    23   ar
     7    23    24   ar
     8    24    25   ar
     9    25    20    1
    10    20     1    1
    11     1     2   ar
    12     2     3   ar
    13     3     4   ar
    14     4     5   ar
    15     5     7    1
    16     7     9    1
    17     9    10   ar
    18    10    11   ar
    19    11    12   ar
    20    12    13   ar
    21    13    14   ar
    22    14    15   ar
    23    15    16    1
    24    15    17   ar
    25    17    18   ar
    26    18    19   ar
    27     5     6   ar
    28    20    30    1
    29    30    31    1
    30    31    32    1
    31    32    33    1
    32    33    34    1
    33    25    21   ar
    34     6     1   ar
    35    34    30    1
    36    19     9   ar
    37    19    13   ar
    38     7     8    1
@<TRIPOS>MOLECULE
*****
 34 38 0 0 0
SMALL
GASTEIGER

@<TRIPOS>ATOM
      1 C          62.3973   85.3657   12.0130 C.ar    1  UNL1        0.0007
      2 C          62.4172   84.8715   10.5969 C.ar    1  UNL1       -0.0025
      3 C          62.3671   85.8494    9.4605 C.ar    1  UNL1        0.0010
      4 C          62.2970   87.3214    9.7403 C.ar    1  UNL1        0.0146
      5 C          62.2771   87.8155   11.1565 C.ar    1  UNL1        0.0481
      6 C          62.3272   86.8377   12.2928 C.ar    1  UNL1        0.0121
      7 N          62.2070   89.2875   11.4363 N.pl3   1  UNL1       -0.3125
      8 H          61.5706   89.8529   10.9416 H       1  UNL1        0.1522
      9 C          63.1065   89.8982   12.4699 C.ar    1  UNL1        0.0513
     10 C          63.1173   89.3570   13.8687 C.ar    1  UNL1        0.0353
     11 C          64.0167   89.9676   14.9022 C.ar    1  UNL1        0.1001
     12 N          64.9054   91.1195   14.5367 N.ar    1  UNL1       -0.2437
     13 C          64.8946   91.6607   13.1379 C.ar    1  UNL1        0.0833
     14 C          65.7832   92.8125   12.7724 C.ar    1  UNL1        0.0305
     15 C          65.7724   93.3537   11.3735 C.ar    1  UNL1        0.0592
     16 CL         66.6611   94.5056   11.0081 Cl      1  UNL1       -0.0822
     17 C          64.8729   92.7431   10.3400 C.ar    1  UNL1        0.0115
     18 C          63.9843   91.5912   10.7054 C.ar    1  UNL1        0.0036
     19 C          63.9951   91.0500   12.1044 C.ar    1  UNL1        0.0312
     20 C          62.4475   84.3878   13.1494 C.3     1  UNL1        0.1412
     21 N          63.5991   85.2165   15.4149 N.ar    1  UNL1       -0.2192
     22 N          63.0995   85.6682   16.7552 N.ar    1  UNL1       -0.0432
     23 N          61.6007   85.6118   16.7342 N.ar    1  UNL1       -0.0229
     24 N          61.1739   85.1254   15.3809 N.ar    1  UNL1       -0.1110
     25 C          62.4091   84.8810   14.5655 C.ar    1  UNL1        0.1794
     26 C          65.1151   86.6132   14.9139 C.3     1  UNL1        0.0245
     27 C          65.0364   85.1176   14.9973 C.3     1  UNL1        0.0896
     28 C          64.9577   83.6220   15.0806 C.3     1  UNL1        0.0245
     29 C          66.4736   85.0187   14.5797 C.3     1  UNL1        0.0245
     30 N          62.5360   82.9168   12.8697 N.3     1  UNL1       -0.2643
     31 C          61.9638   81.8216   13.7201 C.3     1  UNL1        0.0728
     32 C          62.2864   80.5106   13.0665 C.3     1  UNL1        0.0188
     33 C          63.0580   80.7956   11.8121 C.3     1  UNL1        0.0188
     34 C          63.2123   82.2827   11.6905 C.3     1  UNL1        0.0728
@<TRIPOS>BOND
     1    26    27    1
     2    27    28    1
     3    27    29    1
     4    27    21    1
     5    21    22   ar
     6    22    23   ar
     7    23    24   ar
     8    24    25   ar
     9    25    20    1
    10    20     1    1
    11     1     2   ar
    12     2     3   ar
    13     3     4   ar
    14     4     5   ar
    15     5     7    1
    16     7     9    1
    17     9    10   ar
    18    10    11   ar
    19    11    12   ar
    20    12    13   ar
    21    13    14   ar
    22    14    15   ar
    23    15    16    1
    24    15    17   ar
    25    17    18   ar
    26    18    19   ar
    27     5     6   ar
    28    20    30    1
    29    30    31    1
    30    31    32    1
    31    32    33    1
    32    33    34    1
    33    25    21   ar
    34     6     1   ar
    35    34    30    1
    36    19     9   ar
    37    19    13   ar
    38     7     8    1
@<TRIPOS>MOLECULE
*****
 34 38 0 0 0
SMALL
GASTEIGER

@<TRIPOS>ATOM
      1 C          65.0659   91.6467   11.7566 C.ar    1  UNL1        0.0007
      2 C          64.4162   92.0749   10.4742 C.ar    1  UNL1       -0.0025
      3 C          63.1294   91.4401   10.0368 C.ar    1  UNL1        0.0010
      4 C          62.4923   90.3771   10.8819 C.ar    1  UNL1        0.0146
      5 C          63.1420   89.9489   12.1643 C.ar    1  UNL1        0.0481
      6 C          64.4287   90.5837   12.6017 C.ar    1  UNL1        0.0121
      7 N          62.5049   88.8860   13.0094 N.pl3   1  UNL1       -0.3125
      8 H          61.5478   88.9428   13.2330 H       1  UNL1        0.1522
      9 C          63.3260   87.7364   13.5138 C.ar    1  UNL1        0.0513
     10 C          64.2101   87.9152   14.7123 C.ar    1  UNL1        0.0353
     11 C          65.0312   86.7657   15.2166 C.ar    1  UNL1        0.1001
     12 N          64.9682   85.4374   14.5225 N.ar    1  UNL1       -0.2437
     13 C          64.0841   85.2587   13.3240 C.ar    1  UNL1        0.0833
     14 C          64.0211   83.9305   12.6299 C.ar    1  UNL1        0.0305
     15 C          63.1370   83.7517   11.4314 C.ar    1  UNL1        0.0592
     16 CL         63.0740   82.4235   10.7373 Cl      1  UNL1       -0.0822
     17 C          62.3159   84.9013   10.9270 C.ar    1  UNL1        0.0115
     18 C          62.3789   86.2295   11.6211 C.ar    1  UNL1        0.0036
     19 C          63.2630   86.4082   12.8197 C.ar    1  UNL1        0.0312
     20 C          66.3527   92.2815   12.1940 C.3     1  UNL1        0.1412
     21 N          67.2619   94.1161   10.4757 N.ar    1  UNL1       -0.2192
     22 N          68.4290   94.2045    9.5376 N.ar    1  UNL1       -0.0432
     23 N          69.2134   92.9310    9.6523 N.ar    1  UNL1       -0.0229
     24 N          68.5311   92.0556   10.6614 N.ar    1  UNL1       -0.1110
     25 C          67.3250   92.7881   11.1703 C.ar    1  UNL1        0.1794
     26 C          66.4819   95.1451   12.1587 C.3     1  UNL1        0.0245
     27 C          66.2155   95.1707   10.6829 C.3     1  UNL1        0.0896
     28 C          65.9491   95.1961    9.2069 C.3     1  UNL1        0.0245
     29 C          65.1691   96.2252   10.8899 C.3     1  UNL1        0.0245
     30 N          66.6671   92.4096   13.6550 N.3     1  UNL1       -0.2643
     31 C          65.6745   92.6563   14.7522 C.3     1  UNL1        0.0728
     32 C          66.4233   92.7127   16.0507 C.3     1  UNL1        0.0188
     33 C          67.8788   92.5009   15.7560 C.3     1  UNL1        0.0188
     34 C          68.0294   92.3136   14.2754 C.3     1  UNL1        0.0728
@<TRIPOS>BOND
     1    26    27    1
     2    27    28    1
     3    27    29    1
     4    27    21    1
     5    21    22   ar
     6    22    23   ar
     7    23    24   ar
     8    24    25   ar
     9    25    20    1
    10    20     1    1
    11     1     2   ar
    12     2     3   ar
    13     3     4   ar
    14     4     5   ar
    15     5     7    1
    16     7     9    1
    17     9    10   ar
    18    10    11   ar
    19    11    12   ar
    20    12    13   ar
    21    13    14   ar
    22    14    15   ar
    23    15    16    1
    24    15    17   ar
    25    17    18   ar
    26    18    19   ar
    27     5     6   ar
    28    20    30    1
    29    30    31    1
    30    31    32    1
    31    32    33    1
    32    33    34    1
    33    25    21   ar
    34     6     1   ar
    35    34    30    1
    36    19     9   ar
    37    19    13   ar
    38     7     8    1
