@<TRIPOS>MOLECULE
*****
 34 37 0 0 0
SMALL
GASTEIGER

@<TRIPOS>ATOM
      1 C          61.2468   89.0981   11.1428 C.ar    1  UNL1        0.1823
      2 O          60.6135   89.1965   12.4990 O.2     1  UNL1       -0.3532
      3 N          61.5545   89.9437   13.3968 N.ar    1  UNL1       -0.0808
      4 C          62.7694   90.3071   12.5955 C.ar    1  UNL1        0.1080
      5 C          62.5792   89.7845   11.2025 C.ar    1  UNL1        0.0883
      6 BR         63.5508   89.9238   10.0682 Br      1  UNL1       -0.0444
      7 C          63.9646   91.0608   13.0989 C.3     1  UNL1        0.0639
      8 C          64.4440   92.2806   12.3693 C.3     1  UNL1        0.0750
      9 N          65.6391   93.0343   12.8727 N.3     1  UNL1       -0.2971
     10 C          66.3550   92.5682   14.1057 C.3     1  UNL1        0.0689
     11 C          65.8756   91.3484   14.8354 C.3     1  UNL1        0.0219
     12 C          64.6804   90.5947   14.3320 C.3     1  UNL1        0.0308
     13 H          65.3299   93.9890   13.0549 H       1  UNL1        0.1233
     14 C          64.2010   89.3749   15.0616 C.ar    1  UNL1       -0.0197
     15 C          63.4096   89.5209   16.3274 C.ar    1  UNL1       -0.0018
     16 C          62.9302   88.3012   17.0571 C.ar    1  UNL1        0.0316
     17 C          63.2422   86.9355   16.5209 C.ar    1  UNL1        0.1674
     18 F          62.7628   85.7158   17.2505 F       1  UNL1       -0.2018
     19 C          64.0337   86.7895   15.2550 C.ar    1  UNL1        0.1671
     20 F          64.3457   85.4238   14.7189 F       1  UNL1       -0.2018
     21 C          64.5131   88.0092   14.5255 C.ar    1  UNL1        0.0277
     22 C          60.6542   86.9342    9.8326 C.ar    1  UNL1       -0.0174
     23 C          60.0595   86.2666    8.6282 C.ar    1  UNL1       -0.0041
     24 C          59.4627   87.0953    7.5295 C.ar    1  UNL1       -0.0003
     25 C          59.4605   88.5916    7.6353 C.ar    1  UNL1        0.0001
     26 C          60.0552   89.2591    8.8397 C.ar    1  UNL1        0.0028
     27 C          60.6521   88.4304    9.9383 C.ar    1  UNL1        0.0338
     28 C          61.2511   86.1055   10.9312 C.3     1  UNL1        0.0477
     29 C          62.3446   85.1263   10.6225 C.3     1  UNL1        0.0941
     30 C          64.4070   82.2622   12.4375 C.3     1  UNL1        0.0946
     31 C          63.9331   83.2151   11.3804 C.2     1  UNL1        0.2230
     32 O          64.5737   83.2098   10.0241 O.2     1  UNL1       -0.2751
     33 N          62.8185   84.1734   11.6796 N.am    1  UNL1       -0.3040
     34 H          62.3980   84.1769   12.5698 H       1  UNL1        0.1494
@<TRIPOS>BOND
     1    30    31    1
     2    31    32    2
     3    31    33   am
     4    33    29    1
     5    29    28    1
     6    28    22    1
     7    22    23   ar
     8    23    24   ar
     9    24    25   ar
    10    25    26   ar
    11    26    27   ar
    12    27     1    1
    13     1     2   ar
    14     2     3   ar
    15     3     4   ar
    16     7     4    1
    17     7     8    1
    18     8     9    1
    19     9    10    1
    20    10    11    1
    21    11    12    1
    22    12    14    1
    23    14    15   ar
    24    15    16   ar
    25    16    17   ar
    26    17    18    1
    27    17    19   ar
    28    19    20    1
    29    19    21   ar
    30     4     5   ar
    31     5     6    1
    32    27    22   ar
    33     5     1   ar
    34    12     7    1
    35    21    14   ar
    36    33    34    1
    37     9    13    1
@<TRIPOS>MOLECULE
*****
 34 37 0 0 0
SMALL
GASTEIGER

@<TRIPOS>ATOM
      1 C          63.7424   89.2916   13.0838 C.ar    1  UNL1        0.1823
      2 O          63.7702   87.8175   13.3597 O.2     1  UNL1       -0.3532
      3 N          62.9336   87.1352   12.3184 N.ar    1  UNL1       -0.0808
      4 C          62.3887   88.1876   11.3988 C.ar    1  UNL1        0.1080
      5 C          62.8886   89.5203   11.8719 C.ar    1  UNL1        0.0883
      6 BR         62.5875   90.8486   11.2434 Br      1  UNL1       -0.0444
      7 C          61.5000   87.9491   10.2142 C.3     1  UNL1        0.0639
      8 C          60.6991   89.0789    9.6380 C.3     1  UNL1        0.0750
      9 N          59.8104   88.8404    8.4534 N.3     1  UNL1       -0.2971
     10 C          59.7226   87.4721    7.8450 C.3     1  UNL1        0.0689
     11 C          60.5235   86.3423    8.4213 C.3     1  UNL1        0.0219
     12 C          61.4122   86.5808    9.6059 C.3     1  UNL1        0.0308
     13 H          60.1267   89.4705    7.7163 H       1  UNL1        0.1233
     14 C          62.2132   85.4509   10.1822 C.ar    1  UNL1       -0.0197
     15 C          63.3511   84.8636    9.4012 C.ar    1  UNL1       -0.0018
     16 C          64.1520   83.7338    9.9774 C.ar    1  UNL1        0.0316
     17 C          63.8151   83.1915   11.3347 C.ar    1  UNL1        0.1674
     18 F          64.6160   82.0617   11.9109 F       1  UNL1       -0.2018
     19 C          62.6771   83.7789   12.1158 C.ar    1  UNL1        0.1671
     20 F          62.3401   83.2366   13.4731 F       1  UNL1       -0.2018
     21 C          61.8762   84.9086   11.5395 C.ar    1  UNL1        0.0277
     22 C          64.0128   90.6428   15.2864 C.ar    1  UNL1       -0.0174
     23 C          64.7154   91.7022   16.0825 C.ar    1  UNL1       -0.0041
     24 C          65.8503   92.4700   15.4722 C.ar    1  UNL1       -0.0003
     25 C          66.2826   92.1784   14.0658 C.ar    1  UNL1        0.0001
     26 C          65.5800   91.1189   13.2697 C.ar    1  UNL1        0.0028
     27 C          64.4450   90.3511   13.8800 C.ar    1  UNL1        0.0338
     28 C          62.8778   89.8750   15.8967 C.3     1  UNL1        0.0477
     29 C          63.1588   88.6855   16.7661 C.3     1  UNL1        0.0941
     30 C          63.3567   84.7829   16.0723 C.3     1  UNL1        0.0946
     31 C          62.9796   86.0945   16.6948 C.2     1  UNL1        0.2230
     32 O          62.0460   86.1268   17.8684 O.2     1  UNL1       -0.2751
     33 N          63.5360   87.3739   16.1436 N.am    1  UNL1       -0.3040
     34 H          64.1487   87.3527   15.3733 H       1  UNL1        0.1494
@<TRIPOS>BOND
     1    30    31    1
     2    31    32    2
     3    31    33   am
     4    33    29    1
     5    29    28    1
     6    28    22    1
     7    22    23   ar
     8    23    24   ar
     9    24    25   ar
    10    25    26   ar
    11    26    27   ar
    12    27     1    1
    13     1     2   ar
    14     2     3   ar
    15     3     4   ar
    16     7     4    1
    17     7     8    1
    18     8     9    1
    19     9    10    1
    20    10    11    1
    21    11    12    1
    22    12    14    1
    23    14    15   ar
    24    15    16   ar
    25    16    17   ar
    26    17    18    1
    27    17    19   ar
    28    19    20    1
    29    19    21   ar
    30     4     5   ar
    31     5     6    1
    32    27    22   ar
    33     5     1   ar
    34    12     7    1
    35    21    14   ar
    36    33    34    1
    37     9    13    1
@<TRIPOS>MOLECULE
*****
 34 37 0 0 0
SMALL
GASTEIGER

@<TRIPOS>ATOM
      1 C          63.7818   89.8395   12.3684 C.ar    1  UNL1        0.1823
      2 O          63.6235   88.4850   12.9932 O.2     1  UNL1       -0.3532
      3 N          62.6903   87.6844   12.1339 N.ar    1  UNL1       -0.0808
      4 C          62.2719   88.5441   10.9781 C.ar    1  UNL1        0.1080
      5 C          62.9465   89.8760   11.1230 C.ar    1  UNL1        0.0883
      6 BR         62.8098   91.0400   10.1869 Br      1  UNL1       -0.0444
      7 C          61.3423   88.1425    9.8716 C.3     1  UNL1        0.0639
      8 C          60.5497   89.1862    9.1419 C.3     1  UNL1        0.0750
      9 N          59.6201   88.7845    8.0354 N.3     1  UNL1       -0.2971
     10 C          59.4829   87.3391    7.6587 C.3     1  UNL1        0.0689
     11 C          60.2754   86.2953    8.3884 C.3     1  UNL1        0.0219
     12 C          61.2051   86.6970    9.4948 C.3     1  UNL1        0.0308
     13 H          59.9278   89.2791    7.1981 H       1  UNL1        0.1233
     14 C          61.9976   85.6532   10.2246 C.ar    1  UNL1       -0.0197
     15 C          61.7616   85.4189   11.6872 C.ar    1  UNL1       -0.0018
     16 C          62.5541   84.3752   12.4170 C.ar    1  UNL1        0.0316
     17 C          63.5827   83.5659   11.6841 C.ar    1  UNL1        0.1674
     18 F          64.3752   82.5222   12.4139 F       1  UNL1       -0.2018
     19 C          63.8187   83.8003   10.2214 C.ar    1  UNL1        0.1671
     20 F          64.8472   82.9910    9.4886 F       1  UNL1       -0.2018
     21 C          63.0262   84.8439    9.4917 C.ar    1  UNL1        0.0277
     22 C          65.0509   90.9670   14.3352 C.ar    1  UNL1       -0.0174
     23 C          65.8961   92.0881   14.8630 C.ar    1  UNL1       -0.0041
     24 C          66.3175   93.2029   13.9521 C.ar    1  UNL1       -0.0003
     25 C          65.8936   93.1965   12.5132 C.ar    1  UNL1        0.0001
     26 C          65.0484   92.0754   11.9854 C.ar    1  UNL1        0.0028
     27 C          64.6271   90.9606   12.8964 C.ar    1  UNL1        0.0338
     28 C          64.6296   89.8523   15.2461 C.3     1  UNL1        0.0477
     29 C          63.2775   89.8841   15.8947 C.3     1  UNL1        0.0941
     30 C          62.7849   86.8031   18.3472 C.3     1  UNL1        0.0946
     31 C          63.0362   87.5940   17.0977 C.2     1  UNL1        0.2230
     32 O          63.2974   86.8856   15.8015 O.2     1  UNL1       -0.2751
     33 N          63.0262   89.0933   17.1443 N.am    1  UNL1       -0.3040
     34 H          62.8548   89.5582   17.9950 H       1  UNL1        0.1494
@<TRIPOS>BOND
     1    30    31    1
     2    31    32    2
     3    31    33   am
     4    33    29    1
     5    29    28    1
     6    28    22    1
     7    22    23   ar
     8    23    24   ar
     9    24    25   ar
    10    25    26   ar
    11    26    27   ar
    12    27     1    1
    13     1     2   ar
    14     2     3   ar
    15     3     4   ar
    16     7     4    1
    17     7     8    1
    18     8     9    1
    19     9    10    1
    20    10    11    1
    21    11    12    1
    22    12    14    1
    23    14    15   ar
    24    15    16   ar
    25    16    17   ar
    26    17    18    1
    27    17    19   ar
    28    19    20    1
    29    19    21   ar
    30     4     5   ar
    31     5     6    1
    32    27    22   ar
    33     5     1   ar
    34    12     7    1
    35    21    14   ar
    36    33    34    1
    37     9    13    1
@<TRIPOS>MOLECULE
*****
 34 37 0 0 0
SMALL
GASTEIGER

@<TRIPOS>ATOM
      1 C          62.6406   90.0395   12.2194 C.ar    1  UNL1        0.1823
      2 O          61.4769   89.5440   13.0259 O.2     1  UNL1       -0.3532
      3 N          60.5243   88.8581   12.0920 N.ar    1  UNL1       -0.0808
      4 C          61.0992   88.9296   10.7084 C.ar    1  UNL1        0.1080
      5 C          62.4072   89.6598   10.7872 C.ar    1  UNL1        0.0883
      6 BR         63.3212   89.9578    9.6358 Br      1  UNL1       -0.0444
      7 C          60.4757   88.3694    9.4645 C.3     1  UNL1        0.0639
      8 C          59.6063   89.2382    8.6046 C.3     1  UNL1        0.0750
      9 N          58.9828   88.6780    7.3607 N.3     1  UNL1       -0.2971
     10 C          59.2287   87.2490    6.9766 C.3     1  UNL1        0.0689
     11 C          60.0981   86.3802    7.8364 C.3     1  UNL1        0.0219
     12 C          60.7217   86.9404    9.0803 C.3     1  UNL1        0.0308
     13 H          59.3092   89.2522    6.5835 H       1  UNL1        0.1233
     14 C          61.5911   86.0717    9.9402 C.ar    1  UNL1       -0.0197
     15 C          61.4170   86.0770   11.4300 C.ar    1  UNL1       -0.0018
     16 C          62.2864   85.2083   12.2899 C.ar    1  UNL1        0.0316
     17 C          63.3300   84.3342   11.6599 C.ar    1  UNL1        0.1674
     18 F          64.1994   83.4655   12.5198 F       1  UNL1       -0.2018
     19 C          63.5042   84.3289   10.1700 C.ar    1  UNL1        0.1671
     20 F          64.5478   83.4548    9.5401 F       1  UNL1       -0.2018
     21 C          62.6347   85.1976    9.3103 C.ar    1  UNL1        0.0277
     22 C          64.4261   90.3975   14.0725 C.ar    1  UNL1       -0.0174
     23 C          65.6146   91.1420   14.6047 C.ar    1  UNL1       -0.0041
     24 C          66.2059   92.2728   13.8164 C.ar    1  UNL1       -0.0003
     25 C          65.6088   92.6592   12.4957 C.ar    1  UNL1        0.0001
     26 C          64.4204   91.9148   11.9635 C.ar    1  UNL1        0.0028
     27 C          63.8290   90.7839   12.7518 C.ar    1  UNL1        0.0338
     28 C          63.8348   89.2667   14.8608 C.3     1  UNL1        0.0477
     29 C          64.4436   87.8982   14.7815 C.3     1  UNL1        0.0941
     30 C          63.5157   84.1451   15.6780 C.3     1  UNL1        0.0946
     31 C          64.2841   85.3373   15.1900 C.2     1  UNL1        0.2230
     32 O          65.6614   85.1610   14.6227 O.2     1  UNL1       -0.2751
     33 N          63.6752   86.7059   15.2694 N.am    1  UNL1       -0.3040
     34 H          62.7712   86.8217   15.6418 H       1  UNL1        0.1494
@<TRIPOS>BOND
     1    30    31    1
     2    31    32    2
     3    31    33   am
     4    33    29    1
     5    29    28    1
     6    28    22    1
     7    22    23   ar
     8    23    24   ar
     9    24    25   ar
    10    25    26   ar
    11    26    27   ar
    12    27     1    1
    13     1     2   ar
    14     2     3   ar
    15     3     4   ar
    16     7     4    1
    17     7     8    1
    18     8     9    1
    19     9    10    1
    20    10    11    1
    21    11    12    1
    22    12    14    1
    23    14    15   ar
    24    15    16   ar
    25    16    17   ar
    26    17    18    1
    27    17    19   ar
    28    19    20    1
    29    19    21   ar
    30     4     5   ar
    31     5     6    1
    32    27    22   ar
    33     5     1   ar
    34    12     7    1
    35    21    14   ar
    36    33    34    1
    37     9    13    1
@<TRIPOS>MOLECULE
*****
 34 37 0 0 0
SMALL
GASTEIGER

@<TRIPOS>ATOM
      1 C          62.8100   89.8787   10.4042 C.ar    1  UNL1        0.1823
      2 O          63.1275   91.1826    9.7341 O.2     1  UNL1       -0.3532
      3 N          63.8924   92.0298   10.7074 N.ar    1  UNL1       -0.0808
      4 C          64.0477   91.2495   11.9790 C.ar    1  UNL1        0.1080
      5 C          63.3787   89.9201   11.7916 C.ar    1  UNL1        0.0883
      6 BR         63.2934   88.8243   12.8125 Br      1  UNL1       -0.0444
      7 C          64.7488   91.7165   13.2201 C.3     1  UNL1        0.0639
      8 C          64.2781   91.2532   14.5668 C.3     1  UNL1        0.0750
      9 N          64.9792   91.7202   15.8079 N.3     1  UNL1       -0.2971
     10 C          66.1510   92.6507   15.7022 C.3     1  UNL1        0.0689
     11 C          66.6217   93.1141   14.3555 C.3     1  UNL1        0.0219
     12 C          65.9206   92.6470   13.1144 C.3     1  UNL1        0.0308
     13 H          65.3091   90.8851   16.2917 H       1  UNL1        0.1233
     14 C          66.3913   93.1104   11.7676 C.ar    1  UNL1       -0.0197
     15 C          65.9325   94.4320   11.2267 C.ar    1  UNL1       -0.0018
     16 C          66.4031   94.8954    9.8799 C.ar    1  UNL1        0.0316
     17 C          67.3325   94.0371    9.0741 C.ar    1  UNL1        0.1674
     18 F          67.8031   94.5005    7.7273 F       1  UNL1       -0.2018
     19 C          67.7913   92.7154    9.6150 C.ar    1  UNL1        0.1671
     20 F          68.7208   91.8571    8.8092 F       1  UNL1       -0.2018
     21 C          67.3207   92.2521   10.9617 C.ar    1  UNL1        0.0277
     22 C          60.6174   88.9059    9.4063 C.ar    1  UNL1       -0.0174
     23 C          59.8636   87.7616    8.7961 C.ar    1  UNL1       -0.0041
     24 C          60.5486   86.4458    8.5738 C.ar    1  UNL1       -0.0003
     25 C          61.9874   86.2743    8.9616 C.ar    1  UNL1        0.0001
     26 C          62.7412   87.4186    9.5717 C.ar    1  UNL1        0.0028
     27 C          62.0562   88.7344    9.7941 C.ar    1  UNL1        0.0338
     28 C          59.9324   90.2217    9.6286 C.3     1  UNL1        0.0477
     29 C          59.8034   90.7750   11.0168 C.3     1  UNL1        0.0941
     30 C          57.5728   88.5263   13.4080 C.3     1  UNL1        0.0946
     31 C          58.7022   88.9694   12.5259 C.2     1  UNL1        0.2230
     32 O          59.8598   88.0503   12.2709 O.2     1  UNL1       -0.2751
     33 N          58.6740   90.3318   11.8989 N.am    1  UNL1       -0.3040
     34 H          57.9142   90.9352   12.0663 H       1  UNL1        0.1494
@<TRIPOS>BOND
     1    30    31    1
     2    31    32    2
     3    31    33   am
     4    33    29    1
     5    29    28    1
     6    28    22    1
     7    22    23   ar
     8    23    24   ar
     9    24    25   ar
    10    25    26   ar
    11    26    27   ar
    12    27     1    1
    13     1     2   ar
    14     2     3   ar
    15     3     4   ar
    16     7     4    1
    17     7     8    1
    18     8     9    1
    19     9    10    1
    20    10    11    1
    21    11    12    1
    22    12    14    1
    23    14    15   ar
    24    15    16   ar
    25    16    17   ar
    26    17    18    1
    27    17    19   ar
    28    19    20    1
    29    19    21   ar
    30     4     5   ar
    31     5     6    1
    32    27    22   ar
    33     5     1   ar
    34    12     7    1
    35    21    14   ar
    36    33    34    1
    37     9    13    1
@<TRIPOS>MOLECULE
*****
 34 37 0 0 0
SMALL
GASTEIGER

@<TRIPOS>ATOM
      1 C          63.5590   89.2668   13.2633 C.ar    1  UNL1        0.1823
      2 O          63.8719   87.8003   13.3012 O.2     1  UNL1       -0.3532
      3 N          63.1444   87.1416   12.1669 N.ar    1  UNL1       -0.0808
      4 C          62.3818   88.2010   11.4277 C.ar    1  UNL1        0.1080
      5 C          62.6381   89.5144   12.1054 C.ar    1  UNL1        0.0883
      6 BR         62.0728   90.8424   11.6969 Br      1  UNL1       -0.0444
      7 C          61.5152   87.9850   10.2227 C.3     1  UNL1        0.0639
      8 C          60.7405   89.1301    9.6410 C.3     1  UNL1        0.0750
      9 N          59.8739   88.9140    8.4359 N.3     1  UNL1       -0.2971
     10 C          59.7820   87.5528    7.8125 C.3     1  UNL1        0.0689
     11 C          60.5568   86.4076    8.3941 C.3     1  UNL1        0.0219
     12 C          61.4234   86.6237    9.5992 C.3     1  UNL1        0.0308
     13 H          60.2133   89.5472    7.7118 H       1  UNL1        0.1233
     14 C          62.1982   85.4785   10.1810 C.ar    1  UNL1       -0.0197
     15 C          63.2818   84.8217    9.3784 C.ar    1  UNL1       -0.0018
     16 C          64.0566   83.6765    9.9601 C.ar    1  UNL1        0.0316
     17 C          63.7477   83.1883   11.3444 C.ar    1  UNL1        0.1674
     18 F          64.5225   82.0432   11.9261 F       1  UNL1       -0.2018
     19 C          62.6640   83.8452   12.1470 C.ar    1  UNL1        0.1671
     20 F          62.3551   83.3570   13.5312 F       1  UNL1       -0.2018
     21 C          61.8893   84.9903   11.5653 C.ar    1  UNL1        0.0277
     22 C          65.0407   91.3477   13.7368 C.ar    1  UNL1       -0.0174
     23 C          65.5579   92.3845   14.6895 C.ar    1  UNL1       -0.0041
     24 C          65.1106   92.3772   16.1212 C.ar    1  UNL1       -0.0003
     25 C          64.1461   91.3331   16.6003 C.ar    1  UNL1        0.0001
     26 C          63.6289   90.2963   15.6476 C.ar    1  UNL1        0.0028
     27 C          64.0762   90.3036   14.2159 C.ar    1  UNL1        0.0338
     28 C          65.4881   91.3550   12.3051 C.3     1  UNL1        0.0477
     29 C          65.7439   92.6572   11.6059 C.3     1  UNL1        0.0941
     30 C          68.6204   92.3652    8.8874 C.3     1  UNL1        0.0946
     31 C          67.9139   92.3505   10.2105 C.2     1  UNL1        0.2230
     32 O          68.6707   92.0145   11.4612 O.2     1  UNL1       -0.2751
     33 N          66.4505   92.6719   10.2828 N.am    1  UNL1       -0.3040
     34 H          65.9537   92.8924    9.4619 H       1  UNL1        0.1494
@<TRIPOS>BOND
     1    30    31    1
     2    31    32    2
     3    31    33   am
     4    33    29    1
     5    29    28    1
     6    28    22    1
     7    22    23   ar
     8    23    24   ar
     9    24    25   ar
    10    25    26   ar
    11    26    27   ar
    12    27     1    1
    13     1     2   ar
    14     2     3   ar
    15     3     4   ar
    16     7     4    1
    17     7     8    1
    18     8     9    1
    19     9    10    1
    20    10    11    1
    21    11    12    1
    22    12    14    1
    23    14    15   ar
    24    15    16   ar
    25    16    17   ar
    26    17    18    1
    27    17    19   ar
    28    19    20    1
    29    19    21   ar
    30     4     5   ar
    31     5     6    1
    32    27    22   ar
    33     5     1   ar
    34    12     7    1
    35    21    14   ar
    36    33    34    1
    37     9    13    1
@<TRIPOS>MOLECULE
*****
 34 37 0 0 0
SMALL
GASTEIGER

@<TRIPOS>ATOM
      1 C          64.1589   85.8843   14.9594 C.ar    1  UNL1        0.1823
      2 O          65.4959   85.5917   14.3457 O.2     1  UNL1       -0.3532
      3 N          65.4445   84.2124   13.7585 N.ar    1  UNL1       -0.0808
      4 C          64.0757   83.6525   14.0093 C.ar    1  UNL1        0.1080
      5 C          63.2811   84.6858   14.7515 C.ar    1  UNL1        0.0883
      6 BR         61.8586   84.5454   15.2060 Br      1  UNL1       -0.0444
      7 C          63.5872   82.2973   13.5913 C.3     1  UNL1        0.0639
      8 C          63.6684   81.1434   14.5463 C.3     1  UNL1        0.0750
      9 N          63.1799   79.7882   14.1283 N.3     1  UNL1       -0.2971
     10 C          62.6102   79.5869   12.7553 C.3     1  UNL1        0.0689
     11 C          62.5290   80.7408   11.8004 C.3     1  UNL1        0.0219
     12 C          63.0174   82.0960   12.2184 C.3     1  UNL1        0.0308
     13 H          62.4525   79.5200   14.7911 H       1  UNL1        0.1233
     14 C          62.9362   83.2500   11.2635 C.ar    1  UNL1       -0.0197
     15 C          63.7451   83.2365   10.0004 C.ar    1  UNL1       -0.0018
     16 C          63.6639   84.3905    9.0455 C.ar    1  UNL1        0.0316
     17 C          62.7738   85.5578    9.3537 C.ar    1  UNL1        0.1674
     18 F          62.6927   86.7117    8.3988 F       1  UNL1       -0.2018
     19 C          61.9649   85.5712   10.6169 C.ar    1  UNL1        0.1671
     20 F          61.0748   86.7385   10.9251 F       1  UNL1       -0.2018
     21 C          62.0461   84.4173   11.5717 C.ar    1  UNL1        0.0277
     22 C          63.7423   88.4482   14.9026 C.ar    1  UNL1       -0.0174
     23 C          63.3516   89.7165   15.6016 C.ar    1  UNL1       -0.0041
     24 C          62.9867   89.6895   17.0563 C.ar    1  UNL1       -0.0003
     25 C          63.0126   88.3941   17.8120 C.ar    1  UNL1        0.0001
     26 C          63.4033   87.1257   17.1131 C.ar    1  UNL1        0.0028
     27 C          63.7682   87.1528   15.6584 C.ar    1  UNL1        0.0338
     28 C          64.1072   88.4752   13.4479 C.3     1  UNL1        0.0477
     29 C          63.4263   89.4388   12.5217 C.3     1  UNL1        0.0941
     30 C          59.6727   90.2604   11.5289 C.3     1  UNL1        0.0946
     31 C          61.1503   90.0285   11.4160 C.2     1  UNL1        0.2230
     32 O          61.8297   90.1544   10.0847 O.2     1  UNL1       -0.2751
     33 N          61.9486   89.6707   12.6346 N.am    1  UNL1       -0.3040
     34 H          61.5027   89.5880   13.5084 H       1  UNL1        0.1494
@<TRIPOS>BOND
     1    30    31    1
     2    31    32    2
     3    31    33   am
     4    33    29    1
     5    29    28    1
     6    28    22    1
     7    22    23   ar
     8    23    24   ar
     9    24    25   ar
    10    25    26   ar
    11    26    27   ar
    12    27     1    1
    13     1     2   ar
    14     2     3   ar
    15     3     4   ar
    16     7     4    1
    17     7     8    1
    18     8     9    1
    19     9    10    1
    20    10    11    1
    21    11    12    1
    22    12    14    1
    23    14    15   ar
    24    15    16   ar
    25    16    17   ar
    26    17    18    1
    27    17    19   ar
    28    19    20    1
    29    19    21   ar
    30     4     5   ar
    31     5     6    1
    32    27    22   ar
    33     5     1   ar
    34    12     7    1
    35    21    14   ar
    36    33    34    1
    37     9    13    1
@<TRIPOS>MOLECULE
*****
 34 37 0 0 0
SMALL
GASTEIGER

@<TRIPOS>ATOM
      1 C          62.5034   90.0589   10.3394 C.ar    1  UNL1        0.1823
      2 O          63.3075   91.0757    9.5848 O.2     1  UNL1       -0.3532
      3 N          64.1797   91.7991   10.5675 N.ar    1  UNL1       -0.0808
      4 C          63.9148   91.2294   11.9296 C.ar    1  UNL1        0.1080
      5 C          62.8788   90.1539   11.7886 C.ar    1  UNL1        0.0883
      6 BR         62.3168   89.3198   12.9015 Br      1  UNL1       -0.0444
      7 C          64.5707   91.6597   13.2081 C.3     1  UNL1        0.0639
      8 C          64.0451   91.1665   14.5236 C.3     1  UNL1        0.0750
      9 N          64.7010   91.5968   15.8021 N.3     1  UNL1       -0.2971
     10 C          65.8825   92.5202   15.7651 C.3     1  UNL1        0.0689
     11 C          66.4081   93.0134   14.4497 C.3     1  UNL1        0.0219
     12 C          65.7522   92.5831   13.1711 C.3     1  UNL1        0.0308
     13 H          65.0060   90.7472   16.2770 H       1  UNL1        0.1233
     14 C          66.2778   93.0762   11.8556 C.ar    1  UNL1       -0.0197
     15 C          65.8353   94.4064   11.3223 C.ar    1  UNL1       -0.0018
     16 C          66.3609   94.8996   10.0068 C.ar    1  UNL1        0.0316
     17 C          67.3290   94.0624    9.2246 C.ar    1  UNL1        0.1674
     18 F          67.8545   94.5555    7.9091 F       1  UNL1       -0.2018
     19 C          67.7715   92.7321    9.7579 C.ar    1  UNL1        0.1671
     20 F          68.7396   91.8949    8.9757 F       1  UNL1       -0.2018
     21 C          67.2459   92.2390   11.0734 C.ar    1  UNL1        0.0277
     22 C          61.5924   87.6443   10.0391 C.ar    1  UNL1       -0.0174
     23 C          60.5891   86.6986    9.4484 C.ar    1  UNL1       -0.0041
     24 C          59.4936   87.2216    8.5672 C.ar    1  UNL1       -0.0003
     25 C          59.4014   88.6903    8.2768 C.ar    1  UNL1        0.0001
     26 C          60.4047   89.6360    8.8675 C.ar    1  UNL1        0.0028
     27 C          61.5001   89.1130    9.7487 C.ar    1  UNL1        0.0338
     28 C          62.6878   87.1214   10.9203 C.3     1  UNL1        0.0477
     29 C          62.5231   85.8053   11.6207 C.3     1  UNL1        0.0941
     30 C          64.6276   84.2325   14.5953 C.3     1  UNL1        0.0946
     31 C          64.0320   84.4374   13.2339 C.2     1  UNL1        0.2230
     32 O          64.3496   83.4793   12.1244 O.2     1  UNL1       -0.2751
     33 N          63.1187   85.6004   12.9821 N.am    1  UNL1       -0.3040
     34 H          62.9102   86.2293   13.7103 H       1  UNL1        0.1494
@<TRIPOS>BOND
     1    30    31    1
     2    31    32    2
     3    31    33   am
     4    33    29    1
     5    29    28    1
     6    28    22    1
     7    22    23   ar
     8    23    24   ar
     9    24    25   ar
    10    25    26   ar
    11    26    27   ar
    12    27     1    1
    13     1     2   ar
    14     2     3   ar
    15     3     4   ar
    16     7     4    1
    17     7     8    1
    18     8     9    1
    19     9    10    1
    20    10    11    1
    21    11    12    1
    22    12    14    1
    23    14    15   ar
    24    15    16   ar
    25    16    17   ar
    26    17    18    1
    27    17    19   ar
    28    19    20    1
    29    19    21   ar
    30     4     5   ar
    31     5     6    1
    32    27    22   ar
    33     5     1   ar
    34    12     7    1
    35    21    14   ar
    36    33    34    1
    37     9    13    1
@<TRIPOS>MOLECULE
*****
 34 37 0 0 0
SMALL
GASTEIGER

@<TRIPOS>ATOM
      1 C          63.8247   89.6123   13.2803 C.ar    1  UNL1        0.1823
      2 O          63.9534   88.1283   13.4561 O.2     1  UNL1       -0.3532
      3 N          63.1653   87.4624   12.3673 N.ar    1  UNL1       -0.0808
      4 C          62.5495   88.5349   11.5185 C.ar    1  UNL1        0.1080
      5 C          62.9570   89.8637   12.0828 C.ar    1  UNL1        0.0883
      6 BR         62.5655   91.2077   11.5441 Br      1  UNL1       -0.0444
      7 C          61.6790   88.3170   10.3166 C.3     1  UNL1        0.0639
      8 C          61.0122   89.4847    9.6518 C.3     1  UNL1        0.0750
      9 N          60.1418   89.2668    8.4499 N.3     1  UNL1       -0.2971
     10 C          59.9380   87.8812    7.9127 C.3     1  UNL1        0.0689
     11 C          60.6047   86.7135    8.5774 C.3     1  UNL1        0.0219
     12 C          61.4752   86.9314    9.7794 C.3     1  UNL1        0.0308
     13 H          60.5418   89.8204    7.6923 H       1  UNL1        0.1233
     14 C          62.1420   85.7637   10.4442 C.ar    1  UNL1       -0.0197
     15 C          61.8256   85.4329   11.8726 C.ar    1  UNL1       -0.0018
     16 C          62.4923   84.2652   12.5375 C.ar    1  UNL1        0.0316
     17 C          63.4755   83.4284   11.7739 C.ar    1  UNL1        0.1674
     18 F          64.1422   82.2607   12.4387 F       1  UNL1       -0.2018
     19 C          63.7919   83.7592   10.3454 C.ar    1  UNL1        0.1671
     20 F          64.7750   82.9224    9.5818 F       1  UNL1       -0.2018
     21 C          63.1252   84.9268    9.6806 C.ar    1  UNL1        0.0277
     22 C          65.4950   91.5793   13.5824 C.ar    1  UNL1       -0.0174
     23 C          66.1235   92.6279   14.4514 C.ar    1  UNL1       -0.0041
     24 C          65.7103   92.7582   15.8875 C.ar    1  UNL1       -0.0003
     25 C          64.6686   91.8400   16.4545 C.ar    1  UNL1        0.0001
     26 C          64.0401   90.7913   15.5854 C.ar    1  UNL1        0.0028
     27 C          64.4533   90.6610   14.1494 C.ar    1  UNL1        0.0338
     28 C          65.9082   91.4489   12.1463 C.3     1  UNL1        0.0477
     29 C          66.3710   92.6566   11.3865 C.3     1  UNL1        0.0941
     30 C          65.7107   96.5691   11.3088 C.3     1  UNL1        0.0946
     31 C          66.3384   95.2322   11.0470 C.2     1  UNL1        0.2230
     32 O          67.5612   95.1339   10.1838 O.2     1  UNL1       -0.2751
     33 N          65.7433   93.9935   11.6483 N.am    1  UNL1       -0.3040
     34 H          64.9407   94.0580   12.2148 H       1  UNL1        0.1494
@<TRIPOS>BOND
     1    30    31    1
     2    31    32    2
     3    31    33   am
     4    33    29    1
     5    29    28    1
     6    28    22    1
     7    22    23   ar
     8    23    24   ar
     9    24    25   ar
    10    25    26   ar
    11    26    27   ar
    12    27     1    1
    13     1     2   ar
    14     2     3   ar
    15     3     4   ar
    16     7     4    1
    17     7     8    1
    18     8     9    1
    19     9    10    1
    20    10    11    1
    21    11    12    1
    22    12    14    1
    23    14    15   ar
    24    15    16   ar
    25    16    17   ar
    26    17    18    1
    27    17    19   ar
    28    19    20    1
    29    19    21   ar
    30     4     5   ar
    31     5     6    1
    32    27    22   ar
    33     5     1   ar
    34    12     7    1
    35    21    14   ar
    36    33    34    1
    37     9    13    1
