@<TRIPOS>MOLECULE
*****
 28 30 0 0 0
SMALL
GASTEIGER

@<TRIPOS>ATOM
      1 N          62.7509   83.4441   14.6482 N.am    1  UNL1       -0.2508
      2 C          63.4068   84.6276   14.0009 C.2     1  UNL1        0.3089
      3 O          64.0428   84.4866   12.6497 O.2     1  UNL1       -0.2522
      4 N          63.4267   85.9521   14.7046 N.am    1  UNL1       -0.2621
      5 C          62.7632   85.9845   16.0496 C.3     1  UNL1        0.0968
      6 C          62.6166   87.1419   16.9925 C.3     1  UNL1        0.0430
      7 C          63.0972   88.5526   16.8233 C.3     1  UNL1        0.0952
      8 N          63.8431   89.1546   15.6694 N.am    1  UNL1       -0.2777
      9 C          64.1846   90.6090   15.8029 C.2     1  UNL1        0.2254
     10 O          63.7808   91.3643   17.0343 O.2     1  UNL1       -0.2749
     11 C          64.2926   88.4943   14.3998 C.3     1  UNL1        0.1149
     12 C          64.1073   87.0691   13.9705 C.3     1  UNL1        0.1164
     13 H          62.3335   83.5367   15.5350 H       1  UNL1        0.1579
     14 C          64.9299   91.3083   14.7048 C.3     1  UNL1        0.0817
     15 C          64.2762   91.5201   13.3715 C.3     1  UNL1        0.0412
     16 C          65.0216   92.2194   12.2735 C.3     1  UNL1        0.1427
     17 O          66.4205   92.7067   12.5089 O.3     1  UNL1       -0.3538
     18 C          67.0742   92.4948   13.8422 C.3     1  UNL1        0.1427
     19 C          66.3290   91.7956   14.9402 C.3     1  UNL1        0.0412
     20 C          62.7787   80.4304   12.2022 C.ar    1  UNL1        0.1549
     21 C          62.8459   81.9059   12.4642 C.ar    1  UNL1        0.0734
     22 C          62.7311   82.1195   13.9444 C.ar    1  UNL1        0.1771
     23 N          62.5929   80.7762   14.5974 N.ar    1  UNL1       -0.0621
     24 O          62.6223   79.7323   13.5207 O.2     1  UNL1       -0.3565
     25 C          63.1749   81.0913   10.2258 C.3     1  UNL1        0.0076
     26 C          62.8545   79.7693   10.8580 C.3     1  UNL1        0.0539
     27 C          62.5341   78.4472   11.4901 C.3     1  UNL1        0.0076
     28 C          62.9303   79.1081    9.5137 C.3     1  UNL1        0.0076
@<TRIPOS>BOND
     1    25    26    1
     2    26    27    1
     3    26    28    1
     4    26    20    1
     5    20    21   ar
     6    21    22   ar
     7    22     1    1
     8     1     2   am
     9     2     3    2
    10     2     4   am
    11     4     5    1
    12     5     6    1
    13     6     7    1
    14     7     8    1
    15     8     9   am
    16     9    10    2
    17     9    14    1
    18    14    15    1
    19    15    16    1
    20    16    17    1
    21    17    18    1
    22    18    19    1
    23     8    11    1
    24    11    12    1
    25    22    23   ar
    26    23    24   ar
    27    24    20   ar
    28    12     4    1
    29    19    14    1
    30     1    13    1
@<TRIPOS>MOLECULE
*****
 28 30 0 0 0
SMALL
GASTEIGER

@<TRIPOS>ATOM
      1 N          63.4614   89.9015   13.2261 N.am    1  UNL1       -0.2508
      2 C          62.9042   90.5308   11.9838 C.2     1  UNL1        0.3089
      3 O          63.2258   91.9592   11.6576 O.2     1  UNL1       -0.2522
      4 N          62.0254   89.7319   11.0676 N.am    1  UNL1       -0.2621
      5 C          61.7667   88.3148   11.4861 C.3     1  UNL1        0.0968
      6 C          60.9402   87.2715   10.7944 C.3     1  UNL1        0.0430
      7 C          60.1683   87.3875    9.5136 C.3     1  UNL1        0.0952
      8 N          60.0322   88.5755    8.6080 N.am    1  UNL1       -0.2777
      9 C          59.1814   88.3711    7.3897 C.2     1  UNL1        0.2254
     10 O          58.5320   87.0417    7.1429 O.2     1  UNL1       -0.2749
     11 C          60.6345   89.9409    8.7596 C.3     1  UNL1        0.1149
     12 C          61.5215   90.4555    9.8543 C.3     1  UNL1        0.1164
     13 H          63.2504   88.9640   13.4402 H       1  UNL1        0.1579
     14 C          58.9801   89.4961    6.4181 C.3     1  UNL1        0.0817
     15 C          60.1598   90.1025    5.7179 C.3     1  UNL1        0.0412
     16 C          59.9584   91.2275    4.7464 C.3     1  UNL1        0.1427
     17 O          58.5773   91.7460    4.4750 O.3     1  UNL1       -0.3538
     18 C          57.3975   91.1395    5.1753 C.3     1  UNL1        0.1427
     19 C          57.5988   90.0146    6.1468 C.3     1  UNL1        0.0412
     20 C          66.2621   91.8571   15.0694 C.ar    1  UNL1        0.1549
     21 C          65.7782   91.0520   13.8998 C.ar    1  UNL1        0.0734
     22 C          64.3403   90.7005   14.1423 C.ar    1  UNL1        0.1771
     23 N          63.9355   91.2883   15.4616 N.ar    1  UNL1       -0.0621
     24 O          65.1232   92.0030   16.0346 O.2     1  UNL1       -0.3565
     25 C          67.9843   92.0112   13.8404 C.3     1  UNL1        0.0076
     26 C          67.6426   92.4176   15.2432 C.3     1  UNL1        0.0539
     27 C          67.3009   92.8241   16.6461 C.3     1  UNL1        0.0076
     28 C          69.0230   92.9782   15.4171 C.3     1  UNL1        0.0076
@<TRIPOS>BOND
     1    25    26    1
     2    26    27    1
     3    26    28    1
     4    26    20    1
     5    20    21   ar
     6    21    22   ar
     7    22     1    1
     8     1     2   am
     9     2     3    2
    10     2     4   am
    11     4     5    1
    12     5     6    1
    13     6     7    1
    14     7     8    1
    15     8     9   am
    16     9    10    2
    17     9    14    1
    18    14    15    1
    19    15    16    1
    20    16    17    1
    21    17    18    1
    22    18    19    1
    23     8    11    1
    24    11    12    1
    25    22    23   ar
    26    23    24   ar
    27    24    20   ar
    28    12     4    1
    29    19    14    1
    30     1    13    1
@<TRIPOS>MOLECULE
*****
 28 30 0 0 0
SMALL
GASTEIGER

@<TRIPOS>ATOM
      1 N          63.0189   91.0472   14.1424 N.am    1  UNL1       -0.2508
      2 C          63.3623   90.0271   13.0977 C.2     1  UNL1        0.3089
      3 O          64.7829   89.5766   12.9278 O.2     1  UNL1       -0.2522
      4 N          62.2852   89.4574   12.2230 N.am    1  UNL1       -0.2621
      5 C          60.9001   89.9753   12.4754 C.3     1  UNL1        0.0968
      6 C          59.6232   89.6088   11.7786 C.3     1  UNL1        0.0430
      7 C          59.4161   88.6341   10.6576 C.3     1  UNL1        0.0952
      8 N          60.4345   87.7850    9.9562 N.am    1  UNL1       -0.2777
      9 C          59.9059   86.9034    8.8639 C.2     1  UNL1        0.2254
     10 O          58.4422   86.9110    8.5363 O.2     1  UNL1       -0.2749
     11 C          61.9117   87.7010   10.2028 C.3     1  UNL1        0.1149
     12 C          62.7353   88.4453   11.2117 C.3     1  UNL1        0.1164
     13 H          62.0865   91.3429   14.2540 H       1  UNL1        0.1579
     14 C          60.8411   86.0141    8.0992 C.3     1  UNL1        0.0817
     15 C          62.2369   85.7869    8.5991 C.3     1  UNL1        0.0412
     16 C          63.1719   84.8976    7.8344 C.3     1  UNL1        0.1427
     17 O          62.7112   84.2356    6.5698 O.3     1  UNL1       -0.3538
     18 C          61.3154   84.4628    6.0698 C.3     1  UNL1        0.1427
     19 C          60.3802   85.3520    6.8345 C.3     1  UNL1        0.0412
     20 C          66.2104   92.5409   15.7700 C.ar    1  UNL1        0.1549
     21 C          65.4680   92.0283   14.5715 C.ar    1  UNL1        0.0734
     22 C          64.0962   91.6169   15.0172 C.ar    1  UNL1        0.1771
     23 N          63.9906   91.8752   16.4910 N.ar    1  UNL1       -0.0621
     24 O          65.2972   92.4462   16.9562 O.2     1  UNL1       -0.3565
     25 C          67.2605   94.0551   14.7191 C.3     1  UNL1        0.0076
     26 C          67.6186   93.0574   15.7804 C.3     1  UNL1        0.0539
     27 C          67.9768   92.0597   16.8417 C.3     1  UNL1        0.0076
     28 C          69.0269   93.5739   15.7908 C.3     1  UNL1        0.0076
@<TRIPOS>BOND
     1    25    26    1
     2    26    27    1
     3    26    28    1
     4    26    20    1
     5    20    21   ar
     6    21    22   ar
     7    22     1    1
     8     1     2   am
     9     2     3    2
    10     2     4   am
    11     4     5    1
    12     5     6    1
    13     6     7    1
    14     7     8    1
    15     8     9   am
    16     9    10    2
    17     9    14    1
    18    14    15    1
    19    15    16    1
    20    16    17    1
    21    17    18    1
    22    18    19    1
    23     8    11    1
    24    11    12    1
    25    22    23   ar
    26    23    24   ar
    27    24    20   ar
    28    12     4    1
    29    19    14    1
    30     1    13    1
@<TRIPOS>MOLECULE
*****
 28 30 0 0 0
SMALL
GASTEIGER

@<TRIPOS>ATOM
      1 N          60.7376   89.1521    8.8005 N.am    1  UNL1       -0.2508
      2 C          60.7766   87.7070    9.2006 C.2     1  UNL1        0.3089
      3 O          60.0133   86.6883    8.4072 O.2     1  UNL1       -0.2522
      4 N          61.5790   87.2806   10.3941 N.am    1  UNL1       -0.2621
      5 C          62.3039   88.3773   11.1165 C.3     1  UNL1        0.0968
      6 C          63.1792   88.2781   12.3306 C.3     1  UNL1        0.0430
      7 C          63.5457   87.0579   13.1221 C.3     1  UNL1        0.0952
      8 N          63.1276   85.6354   12.8951 N.am    1  UNL1       -0.2777
      9 C          63.6690   84.6340   13.8719 C.2     1  UNL1        0.2254
     10 O          64.5675   85.0831   14.9859 O.2     1  UNL1       -0.2749
     11 C          62.2395   85.0818   11.8204 C.3     1  UNL1        0.1149
     12 C          61.5503   85.8141   10.7074 C.3     1  UNL1        0.1164
     13 H          61.2386   89.8207    9.3212 H       1  UNL1        0.1579
     14 C          63.3119   83.1836   13.7346 C.3     1  UNL1        0.0817
     15 C          64.0962   82.3025   12.8080 C.3     1  UNL1        0.0412
     16 C          63.7391   80.8522   12.6709 C.3     1  UNL1        0.1427
     17 O          62.5978   80.2828   13.4602 O.3     1  UNL1       -0.3538
     18 C          61.8135   81.1639   14.3869 C.3     1  UNL1        0.1427
     19 C          62.1705   82.6143   14.5241 C.3     1  UNL1        0.0412
     20 C          59.2259   90.7415    5.5982 C.ar    1  UNL1        0.1549
     21 C          60.3137   90.6492    6.6270 C.ar    1  UNL1        0.0734
     22 C          59.9352   89.5785    7.6069 C.ar    1  UNL1        0.1771
     23 N          58.6136   89.0091    7.1839 N.ar    1  UNL1       -0.0621
     24 O          58.1752   89.7278    5.9425 O.2     1  UNL1       -0.3565
     25 C          60.6876   91.5934    4.3184 C.3     1  UNL1        0.0076
     26 C          59.1944   91.6823    4.4303 C.3     1  UNL1        0.0539
     27 C          57.7012   91.7712    4.5422 C.3     1  UNL1        0.0076
     28 C          59.1629   92.6230    3.2624 C.3     1  UNL1        0.0076
@<TRIPOS>BOND
     1    25    26    1
     2    26    27    1
     3    26    28    1
     4    26    20    1
     5    20    21   ar
     6    21    22   ar
     7    22     1    1
     8     1     2   am
     9     2     3    2
    10     2     4   am
    11     4     5    1
    12     5     6    1
    13     6     7    1
    14     7     8    1
    15     8     9   am
    16     9    10    2
    17     9    14    1
    18    14    15    1
    19    15    16    1
    20    16    17    1
    21    17    18    1
    22    18    19    1
    23     8    11    1
    24    11    12    1
    25    22    23   ar
    26    23    24   ar
    27    24    20   ar
    28    12     4    1
    29    19    14    1
    30     1    13    1
@<TRIPOS>MOLECULE
*****
 28 30 0 0 0
SMALL
GASTEIGER

@<TRIPOS>ATOM
      1 N          65.2312   92.9074   13.7072 N.am    1  UNL1       -0.2508
      2 C          65.1717   91.4430   13.3882 C.2     1  UNL1        0.3089
      3 O          65.6955   90.9393   12.0760 O.2     1  UNL1       -0.2522
      4 N          64.5884   90.4821   14.3815 N.am    1  UNL1       -0.2621
      5 C          64.0938   91.0891   15.6610 C.3     1  UNL1        0.0968
      6 C          63.4654   90.4051   16.8389 C.3     1  UNL1        0.0430
      7 C          63.1766   88.9456   17.0283 C.3     1  UNL1        0.0952
      8 N          63.4446   87.8092   16.0865 N.am    1  UNL1       -0.2777
      9 C          63.0355   86.4505   16.5728 C.2     1  UNL1        0.2254
     10 O          62.4025   86.2968   17.9240 O.2     1  UNL1       -0.2749
     11 C          64.0678   87.8519   14.7228 C.3     1  UNL1        0.1149
     12 C          64.5768   89.0415   13.9640 C.3     1  UNL1        0.1164
     13 H          64.8873   93.2380   14.5685 H       1  UNL1        0.1579
     14 C          63.2592   85.2456   15.7079 C.3     1  UNL1        0.0817
     15 C          62.1786   84.2154   15.5629 C.3     1  UNL1        0.0412
     16 C          62.4025   83.0104   14.6980 C.3     1  UNL1        0.1427
     17 O          63.7067   82.8357   13.9782 O.3     1  UNL1       -0.3538
     18 C          64.7873   83.8659   14.1232 C.3     1  UNL1        0.1427
     19 C          64.5636   85.0708   14.9880 C.3     1  UNL1        0.0412
     20 C          66.5834   94.8550   10.6340 C.ar    1  UNL1        0.1549
     21 C          65.9492   93.6371   11.2380 C.ar    1  UNL1        0.0734
     22 C          65.8145   93.8683   12.7139 C.ar    1  UNL1        0.1771
     23 N          66.3655   95.2290   13.0222 N.ar    1  UNL1       -0.0621
     24 O          66.8407   95.8387   11.7368 O.2     1  UNL1       -0.3565
     25 C          67.7307   93.8023    9.1932 C.3     1  UNL1        0.0076
     26 C          66.9041   95.0540    9.1823 C.3     1  UNL1        0.0539
     27 C          66.0776   96.3057    9.1713 C.3     1  UNL1        0.0076
     28 C          67.2248   95.2531    7.7305 C.3     1  UNL1        0.0076
@<TRIPOS>BOND
     1    25    26    1
     2    26    27    1
     3    26    28    1
     4    26    20    1
     5    20    21   ar
     6    21    22   ar
     7    22     1    1
     8     1     2   am
     9     2     3    2
    10     2     4   am
    11     4     5    1
    12     5     6    1
    13     6     7    1
    14     7     8    1
    15     8     9   am
    16     9    10    2
    17     9    14    1
    18    14    15    1
    19    15    16    1
    20    16    17    1
    21    17    18    1
    22    18    19    1
    23     8    11    1
    24    11    12    1
    25    22    23   ar
    26    23    24   ar
    27    24    20   ar
    28    12     4    1
    29    19    14    1
    30     1    13    1
@<TRIPOS>MOLECULE
*****
 28 30 0 0 0
SMALL
GASTEIGER

@<TRIPOS>ATOM
      1 N          62.8416   86.2532   13.2570 N.am    1  UNL1       -0.2508
      2 C          63.9132   86.9997   13.9946 C.2     1  UNL1        0.3089
      3 O          64.7075   86.3100   15.0639 O.2     1  UNL1       -0.2522
      4 N          64.1907   88.4360   13.6630 N.am    1  UNL1       -0.2621
      5 C          63.3404   89.0297   12.5791 C.3     1  UNL1        0.0968
      6 C          63.3711   90.4227   12.0236 C.3     1  UNL1        0.0430
      7 C          64.2597   91.5661   12.4148 C.3     1  UNL1        0.0952
      8 N          65.3370   91.5989   13.4580 N.am    1  UNL1       -0.2777
      9 C          66.0543   92.9072   13.6118 C.2     1  UNL1        0.2254
     10 O          65.6767   94.0755   12.7501 O.2     1  UNL1       -0.2749
     11 C          65.7918   90.4964   14.3677 C.3     1  UNL1        0.1149
     12 C          65.2816   89.0888   14.4589 C.3     1  UNL1        0.1164
     13 H          62.3203   86.7059   12.5552 H       1  UNL1        0.1579
     14 C          67.1494   93.0473   14.6273 C.3     1  UNL1        0.0817
     15 C          67.7181   94.4007   14.9352 C.3     1  UNL1        0.0412
     16 C          68.8131   94.5407   15.9508 C.3     1  UNL1        0.1427
     17 O          69.3395   93.3274   16.6583 O.3     1  UNL1       -0.3538
     18 C          68.7708   91.9740   16.3504 C.3     1  UNL1        0.1427
     19 C          67.6758   91.8339   15.3349 C.3     1  UNL1        0.0412
     20 C          62.3834   82.4023   13.4206 C.ar    1  UNL1        0.1549
     21 C          62.7995   83.6422   12.6859 C.ar    1  UNL1        0.0734
     22 C          62.5641   84.8168   13.5886 C.ar    1  UNL1        0.1771
     23 N          62.0027   84.3029   14.8812 N.ar    1  UNL1       -0.0621
     24 O          61.8910   82.8107   14.7773 O.2     1  UNL1       -0.3565
     25 C          63.3605   81.4575   11.7918 C.3     1  UNL1        0.0076
     26 C          62.4484   81.0002   12.8914 C.3     1  UNL1        0.0539
     27 C          61.5364   80.5429   13.9910 C.3     1  UNL1        0.0076
     28 C          62.5135   79.5981   12.3622 C.3     1  UNL1        0.0076
@<TRIPOS>BOND
     1    25    26    1
     2    26    27    1
     3    26    28    1
     4    26    20    1
     5    20    21   ar
     6    21    22   ar
     7    22     1    1
     8     1     2   am
     9     2     3    2
    10     2     4   am
    11     4     5    1
    12     5     6    1
    13     6     7    1
    14     7     8    1
    15     8     9   am
    16     9    10    2
    17     9    14    1
    18    14    15    1
    19    15    16    1
    20    16    17    1
    21    17    18    1
    22    18    19    1
    23     8    11    1
    24    11    12    1
    25    22    23   ar
    26    23    24   ar
    27    24    20   ar
    28    12     4    1
    29    19    14    1
    30     1    13    1
@<TRIPOS>MOLECULE
*****
 28 30 0 0 0
SMALL
GASTEIGER

@<TRIPOS>ATOM
      1 N          56.4092   94.3571   -2.3500 N.am    1  UNL1       -0.2508
      2 C          57.7184   95.0549   -2.1285 C.2     1  UNL1        0.3089
      3 O          57.9506   96.4169   -2.7124 O.2     1  UNL1       -0.2522
      4 N          58.7955   94.3906   -1.3232 N.am    1  UNL1       -0.2621
      5 C          58.4609   93.0309   -0.7852 C.3     1  UNL1        0.0968
      6 C          59.3130   92.1186    0.0465 C.3     1  UNL1        0.0430
      7 C          60.7099   92.3407    0.5457 C.3     1  UNL1        0.0952
      8 N          61.5999   93.5298    0.3365 N.am    1  UNL1       -0.2777
      9 C          62.9564   93.4473    0.9713 C.2     1  UNL1        0.2254
     10 O          63.3449   92.2285    1.7546 O.2     1  UNL1       -0.2749
     11 C          61.3127   94.7907   -0.4236 C.3     1  UNL1        0.1149
     12 C          60.0646   95.1737   -1.1622 C.3     1  UNL1        0.1164
     13 H          56.2568   93.4632   -1.9668 H       1  UNL1        0.1579
     14 C          63.9244   94.5835    0.8228 C.3     1  UNL1        0.0817
     15 C          64.1450   95.5345    1.9617 C.3     1  UNL1        0.0412
     16 C          65.1130   96.6706    1.8132 C.3     1  UNL1        0.1427
     17 O          65.8602   96.8560    0.5259 O.3     1  UNL1       -0.3538
     18 C          65.6396   95.9050   -0.6130 C.3     1  UNL1        0.1427
     19 C          64.6716   94.7688   -0.4646 C.3     1  UNL1        0.0412
     20 C          53.1975   95.9652   -3.8214 C.ar    1  UNL1        0.1549
     21 C          53.9270   95.2848   -2.7011 C.ar    1  UNL1        0.0734
     22 C          55.3320   95.0215   -3.1554 C.ar    1  UNL1        0.1771
     23 N          55.4710   95.5391   -4.5564 N.ar    1  UNL1       -0.0621
     24 O          54.1518   96.1223   -4.9680 O.2     1  UNL1       -0.3565
     25 C          51.8049   96.4625   -2.3004 C.3     1  UNL1        0.0076
     26 C          51.7652   96.4103   -3.7990 C.3     1  UNL1        0.0539
     27 C          51.7255   96.3581   -5.2975 C.3     1  UNL1        0.0076
     28 C          50.3329   96.8554   -3.7766 C.3     1  UNL1        0.0076
@<TRIPOS>BOND
     1    25    26    1
     2    26    27    1
     3    26    28    1
     4    26    20    1
     5    20    21   ar
     6    21    22   ar
     7    22     1    1
     8     1     2   am
     9     2     3    2
    10     2     4   am
    11     4     5    1
    12     5     6    1
    13     6     7    1
    14     7     8    1
    15     8     9   am
    16     9    10    2
    17     9    14    1
    18    14    15    1
    19    15    16    1
    20    16    17    1
    21    17    18    1
    22    18    19    1
    23     8    11    1
    24    11    12    1
    25    22    23   ar
    26    23    24   ar
    27    24    20   ar
    28    12     4    1
    29    19    14    1
    30     1    13    1
@<TRIPOS>MOLECULE
*****
 28 30 0 0 0
SMALL
GASTEIGER

@<TRIPOS>ATOM
      1 N          61.2204   93.4770    2.1424 N.am    1  UNL1       -0.2508
      2 C          61.3922   93.0042    0.7293 C.2     1  UNL1        0.3089
      3 O          60.6171   91.8186    0.2357 O.2     1  UNL1       -0.2522
      4 N          62.3389   93.7170   -0.1902 N.am    1  UNL1       -0.2621
      5 C          63.0635   94.8890    0.4028 C.3     1  UNL1        0.0968
      6 C          64.0641   95.7971   -0.2488 C.3     1  UNL1        0.0430
      7 C          64.5871   95.7574   -1.6540 C.3     1  UNL1        0.0952
      8 N          64.2388   94.8000   -2.7549 N.am    1  UNL1       -0.2777
      9 C          64.9407   95.0268   -4.0610 C.2     1  UNL1        0.2254
     10 O          65.9191   96.1551   -4.2005 O.2     1  UNL1       -0.2749
     11 C          63.2814   93.6457   -2.7224 C.3     1  UNL1        0.1149
     12 C          62.4359   93.1638   -1.5810 C.3     1  UNL1        0.1164
     13 H          61.7291   94.2552    2.4664 H       1  UNL1        0.1579
     14 C          64.6641   94.1253   -5.2276 C.3     1  UNL1        0.0817
     15 C          65.3329   92.7855   -5.3151 C.3     1  UNL1        0.0412
     16 C          65.0563   91.8841   -6.4817 C.3     1  UNL1        0.1427
     17 O          64.1110   92.3223   -7.5606 O.3     1  UNL1       -0.3538
     18 C          63.4421   93.6621   -7.4730 C.3     1  UNL1        0.1427
     19 C          63.7187   94.5636   -6.3065 C.3     1  UNL1        0.0412
     20 C          59.3927   91.2965    4.7826 C.ar    1  UNL1        0.1549
     21 C          60.6491   91.7454    4.0969 C.ar    1  UNL1        0.0734
     22 C          60.2736   92.7641    3.0620 C.ar    1  UNL1        0.1771
     23 N          58.7852   92.9449    3.1080 N.ar    1  UNL1       -0.0621
     24 O          58.2408   92.0378    4.1713 O.2     1  UNL1       -0.3565
     25 C          57.8103   90.4239    5.8939 C.3     1  UNL1        0.0076
     26 C          59.3038   90.2840    5.8858 C.3     1  UNL1        0.0539
     27 C          60.7972   90.1441    5.8777 C.3     1  UNL1        0.0076
     28 C          59.2149   89.2715    6.9890 C.3     1  UNL1        0.0076
@<TRIPOS>BOND
     1    25    26    1
     2    26    27    1
     3    26    28    1
     4    26    20    1
     5    20    21   ar
     6    21    22   ar
     7    22     1    1
     8     1     2   am
     9     2     3    2
    10     2     4   am
    11     4     5    1
    12     5     6    1
    13     6     7    1
    14     7     8    1
    15     8     9   am
    16     9    10    2
    17     9    14    1
    18    14    15    1
    19    15    16    1
    20    16    17    1
    21    17    18    1
    22    18    19    1
    23     8    11    1
    24    11    12    1
    25    22    23   ar
    26    23    24   ar
    27    24    20   ar
    28    12     4    1
    29    19    14    1
    30     1    13    1
@<TRIPOS>MOLECULE
*****
 28 30 0 0 0
SMALL
GASTEIGER

@<TRIPOS>ATOM
      1 N          57.1148   95.5641   -3.7955 N.am    1  UNL1       -0.2508
      2 C          57.4568   94.8278   -2.5343 C.2     1  UNL1        0.3089
      3 O          56.3702   94.1919   -1.7189 O.2     1  UNL1       -0.2522
      4 N          58.8855   94.7273   -2.0884 N.am    1  UNL1       -0.2621
      5 C          59.8926   95.3976   -2.9753 C.3     1  UNL1        0.0968
      6 C          61.3812   95.4760   -2.8074 C.3     1  UNL1        0.0430
      7 C          62.2301   94.9035   -1.7113 C.3     1  UNL1        0.0952
      8 N          61.8003   94.1112   -0.5123 N.am    1  UNL1       -0.2777
      9 C          62.9010   93.6770    0.4095 C.2     1  UNL1        0.2254
     10 O          64.3235   94.0403    0.1025 O.2     1  UNL1       -0.2749
     11 C          60.4153   93.6958   -0.1133 C.3     1  UNL1        0.1149
     12 C          59.1181   93.9700   -0.8148 C.3     1  UNL1        0.1164
     13 H          57.8279   95.9815   -4.3307 H       1  UNL1        0.1579
     14 C          62.5791   92.8794    1.6385 C.3     1  UNL1        0.0817
     15 C          61.2591   93.0625    2.3270 C.3     1  UNL1        0.0412
     16 C          60.9373   92.2649    3.5560 C.3     1  UNL1        0.1427
     17 O          61.9354   91.2843    4.0964 O.3     1  UNL1       -0.3538
     18 C          63.2554   91.1012    3.4078 C.3     1  UNL1        0.1427
     19 C          63.5773   91.8987    2.1789 C.3     1  UNL1        0.0412
     20 C          53.2900   96.0515   -4.2423 C.ar    1  UNL1        0.1549
     21 C          54.5268   96.0996   -3.3947 C.ar    1  UNL1        0.0734
     22 C          55.6860   95.6646   -4.2414 C.ar    1  UNL1        0.1771
     23 N          55.1658   95.3477   -5.6122 N.ar    1  UNL1       -0.0621
     24 O          53.6850   95.5868   -5.6127 O.2     1  UNL1       -0.3565
     25 C          51.4377   96.3777   -5.2235 C.3     1  UNL1        0.0076
     26 C          51.9020   96.4059   -3.7974 C.3     1  UNL1        0.0539
     27 C          52.3662   96.4341   -2.3713 C.3     1  UNL1        0.0076
     28 C          50.5140   96.7603   -3.3526 C.3     1  UNL1        0.0076
@<TRIPOS>BOND
     1    25    26    1
     2    26    27    1
     3    26    28    1
     4    26    20    1
     5    20    21   ar
     6    21    22   ar
     7    22     1    1
     8     1     2   am
     9     2     3    2
    10     2     4   am
    11     4     5    1
    12     5     6    1
    13     6     7    1
    14     7     8    1
    15     8     9   am
    16     9    10    2
    17     9    14    1
    18    14    15    1
    19    15    16    1
    20    16    17    1
    21    17    18    1
    22    18    19    1
    23     8    11    1
    24    11    12    1
    25    22    23   ar
    26    23    24   ar
    27    24    20   ar
    28    12     4    1
    29    19    14    1
    30     1    13    1
