@<TRIPOS>MOLECULE
*****
 36 40 0 0 0
SMALL
GASTEIGER

@<TRIPOS>ATOM
      1 O          61.9980   83.3115   11.6153 O.2     1  UNL1       -0.2698
      2 C          62.5260   84.6204   12.1232 C.2     1  UNL1        0.2496
      3 N          62.5441   85.9164   11.3681 N.am    1  UNL1       -0.2803
      4 C          63.1578   86.9602   12.2535 C.ar    1  UNL1        0.0519
      5 C          63.4344   88.4192   12.0422 C.ar    1  UNL1        0.0293
      6 C          64.0722   89.2273   13.1331 C.ar    1  UNL1        0.0516
      7 C          64.4334   88.5764   14.4353 C.ar    1  UNL1        0.0148
      8 C          64.1568   87.1174   14.6467 C.ar    1  UNL1        0.0026
      9 C          63.5190   86.3093   13.5558 C.ar    1  UNL1        0.0180
     10 C          63.1285   84.8632   13.4752 C.2     1  UNL1        0.0563
     11 C          63.3089   83.8397   14.5568 C.2     1  UNL1        0.0215
     12 H          62.2115   86.0572   10.4523 H       1  UNL1        0.1552
     13 C          62.8676   82.4239   14.3308 C.ar    1  UNL1        0.0568
     14 C          63.7317   81.2978   13.8460 C.ar    1  UNL1        0.0185
     15 C          62.8829   80.0637   13.7656 C.ar    1  UNL1        0.0199
     16 C          61.4942   80.4271   14.2006 C.ar    1  UNL1        0.0724
     17 N          61.4847   81.8859   14.5499 N.ar    1  UNL1       -0.3520
     18 H          60.7073   82.3999   14.8673 H       1  UNL1        0.1660
     19 N          64.3488   90.6864   12.9218 N.am    1  UNL1       -0.2832
     20 C          65.6423   91.2807   13.3949 C.2     1  UNL1        0.2388
     21 O          66.6591   90.4159   14.0793 O.2     1  UNL1       -0.2739
     22 H          63.6815   91.2540   12.4726 H       1  UNL1        0.1549
     23 C          65.9189   92.7398   13.1836 C.3     1  UNL1        0.1793
     24 C          66.2564   93.6162   14.3532 C.2     1  UNL1        0.0891
     25 N          66.5331   95.0753   14.1419 N.2     1  UNL1       -0.2459
     26 C          66.4723   95.6579   12.7610 C.2     1  UNL1        0.1014
     27 C          66.1348   94.7814   11.5914 C.2     1  UNL1        0.0568
     28 C          65.8581   93.3224   11.8027 C.2     1  UNL1        0.1886
     29 O          65.5206   92.4460   10.6331 O.2     1  UNL1       -0.2904
     30 C          66.0739   95.3640   10.2105 C.ar    1  UNL1        0.0318
     31 C          64.9434   96.2733    9.8292 C.ar    1  UNL1        0.0024
     32 C          64.8826   96.8558    8.4484 C.ar    1  UNL1        0.0001
     33 C          65.9522   96.5292    7.4487 C.ar    1  UNL1        0.0023
     34 C          67.0826   95.6200    7.8300 C.ar    1  UNL1        0.0296
     35 C          67.1435   95.0374    9.2109 C.ar    1  UNL1        0.1402
     36 F          68.2740   94.1282    9.5922 F       1  UNL1       -0.2042
@<TRIPOS>BOND
     1     1     2    2
     2     2     3   am
     3     3     4    1
     4     4     5   ar
     5     5     6   ar
     6     6    19    1
     7    19    20   am
     8    20    21    2
     9    20    23    1
    10    23    24    1
    11    24    25    2
    12    25    26    1
    13    26    27    2
    14    27    30    1
    15    30    31   ar
    16    31    32   ar
    17    32    33   ar
    18    33    34   ar
    19    34    35   ar
    20    35    36    1
    21    27    28    1
    22    28    29    2
    23     6     7   ar
    24     7     8   ar
    25     8     9   ar
    26     9    10    1
    27    10    11    2
    28    11    13    1
    29    13    14   ar
    30    14    15   ar
    31    15    16   ar
    32    16    17   ar
    33    10     2    1
    34    17    13   ar
    35     9     4   ar
    36    28    23    1
    37    35    30   ar
    38     3    12    1
    39    19    22    1
    40    17    18    1
@<TRIPOS>MOLECULE
*****
 36 40 0 0 0
SMALL
GASTEIGER

@<TRIPOS>ATOM
      1 O          63.9514   86.9717   14.0923 O.2     1  UNL1       -0.2698
      2 C          63.1912   87.2951   12.8402 C.2     1  UNL1        0.2496
      3 N          63.0734   88.6488   12.2052 N.am    1  UNL1       -0.2803
      4 C          62.2247   88.5119   10.9759 C.ar    1  UNL1        0.0519
      5 C          61.7697   89.5112    9.9540 C.ar    1  UNL1        0.0293
      6 C          60.9080   89.0720    8.8074 C.ar    1  UNL1        0.0516
      7 C          60.5014   87.6336    8.6828 C.ar    1  UNL1        0.0148
      8 C          60.9564   86.6343    9.7047 C.ar    1  UNL1        0.0026
      9 C          61.8181   87.0735   10.8513 C.ar    1  UNL1        0.0180
     10 C          62.4154   86.3214   12.0035 C.2     1  UNL1        0.0563
     11 C          62.2636   84.8535   12.2718 C.2     1  UNL1        0.0215
     12 H          63.4814   89.4811   12.5369 H       1  UNL1        0.1552
     13 C          62.9226   84.2380   13.4706 C.ar    1  UNL1        0.0568
     14 C          64.1151   83.3283   13.4512 C.ar    1  UNL1        0.0185
     15 C          64.4343   82.9523   14.8678 C.ar    1  UNL1        0.0199
     16 C          63.4393   83.6297   15.7627 C.ar    1  UNL1        0.0724
     17 N          62.5049   84.4243   14.8992 N.ar    1  UNL1       -0.3520
     18 H          61.7501   84.9720   15.2146 H       1  UNL1        0.1660
     19 N          60.4530   90.0713    7.7854 N.am    1  UNL1       -0.2832
     20 C          59.6795   89.6158    6.5837 C.2     1  UNL1        0.2388
     21 O          59.3610   88.1610    6.4039 O.2     1  UNL1       -0.2739
     22 H          60.6620   91.0261    7.9034 H       1  UNL1        0.1549
     23 C          59.2244   90.6150    5.5617 C.3     1  UNL1        0.1793
     24 C          57.7681   90.9532    5.4399 C.2     1  UNL1        0.0891
     25 N          57.3131   91.9524    4.4179 N.2     1  UNL1       -0.2459
     26 C          58.3143   92.6135    3.5177 C.2     1  UNL1        0.1014
     27 C          59.7706   92.2754    3.6395 C.2     1  UNL1        0.0568
     28 C          60.2257   91.2762    4.6614 C.2     1  UNL1        0.1886
     29 O          61.6820   90.9381    4.7832 O.2     1  UNL1       -0.2904
     30 C          60.7719   92.9365    2.7393 C.ar    1  UNL1        0.0318
     31 C          61.7973   92.1090    2.0223 C.ar    1  UNL1        0.0024
     32 C          62.7985   92.7701    1.1221 C.ar    1  UNL1        0.0001
     33 C          62.7745   94.2586    0.9388 C.ar    1  UNL1        0.0023
     34 C          61.7492   95.0861    1.6557 C.ar    1  UNL1        0.0296
     35 C          60.7479   94.4250    2.5560 C.ar    1  UNL1        0.1402
     36 F          59.7226   95.2525    3.2729 F       1  UNL1       -0.2042
@<TRIPOS>BOND
     1     1     2    2
     2     2     3   am
     3     3     4    1
     4     4     5   ar
     5     5     6   ar
     6     6    19    1
     7    19    20   am
     8    20    21    2
     9    20    23    1
    10    23    24    1
    11    24    25    2
    12    25    26    1
    13    26    27    2
    14    27    30    1
    15    30    31   ar
    16    31    32   ar
    17    32    33   ar
    18    33    34   ar
    19    34    35   ar
    20    35    36    1
    21    27    28    1
    22    28    29    2
    23     6     7   ar
    24     7     8   ar
    25     8     9   ar
    26     9    10    1
    27    10    11    2
    28    11    13    1
    29    13    14   ar
    30    14    15   ar
    31    15    16   ar
    32    16    17   ar
    33    10     2    1
    34    17    13   ar
    35     9     4   ar
    36    28    23    1
    37    35    30   ar
    38     3    12    1
    39    19    22    1
    40    17    18    1
@<TRIPOS>MOLECULE
*****
 36 40 0 0 0
SMALL
GASTEIGER

@<TRIPOS>ATOM
      1 O          63.9327   82.8381   10.6818 O.2     1  UNL1       -0.2698
      2 C          63.1648   84.1029   10.4356 C.2     1  UNL1        0.2496
      3 N          63.0945   84.8534    9.1388 N.am    1  UNL1       -0.2803
      4 C          62.2186   86.0537    9.3447 C.ar    1  UNL1        0.0519
      5 C          61.7892   87.1534    8.4194 C.ar    1  UNL1        0.0293
      6 C          60.8887   88.2443    8.9183 C.ar    1  UNL1        0.0516
      7 C          60.4177   88.2356   10.3424 C.ar    1  UNL1        0.0148
      8 C          60.8472   87.1359   11.2677 C.ar    1  UNL1        0.0026
      9 C          61.7477   86.0450   10.7688 C.ar    1  UNL1        0.0180
     10 C          62.3325   84.8394   11.4430 C.2     1  UNL1        0.0563
     11 C          62.1218   84.4402   12.8735 C.2     1  UNL1        0.0215
     12 H          63.5442   84.6024    8.2998 H       1  UNL1        0.1552
     13 C          62.7750   83.2012   13.4105 C.ar    1  UNL1        0.0568
     14 C          62.1123   81.8702   13.6085 C.ar    1  UNL1        0.0185
     15 C          63.1332   80.9221   14.1640 C.ar    1  UNL1        0.0199
     16 C          64.4270   81.6671   14.3094 C.ar    1  UNL1        0.0724
     17 N          64.2056   83.0757   13.8437 N.ar    1  UNL1       -0.3520
     18 H          64.8807   83.7920   13.8255 H       1  UNL1        0.1660
     19 N          60.4591   89.3441    7.9930 N.am    1  UNL1       -0.2832
     20 C          59.5198   89.0483    6.8616 C.2     1  UNL1        0.2388
     21 O          59.0100   87.6526    6.6554 O.2     1  UNL1       -0.2739
     22 H          60.7937   90.2601    8.1283 H       1  UNL1        0.1549
     23 C          59.0903   90.1479    5.9363 C.3     1  UNL1        0.1793
     24 C          57.6820   90.6620    5.9852 C.2     1  UNL1        0.0891
     25 N          57.2524   91.7617    5.0599 N.2     1  UNL1       -0.2459
     26 C          58.2312   92.3473    4.0857 C.2     1  UNL1        0.1014
     27 C          59.6395   91.8333    4.0368 C.2     1  UNL1        0.0568
     28 C          60.0690   90.7336    4.9621 C.2     1  UNL1        0.1886
     29 O          61.4773   90.2195    4.9132 O.2     1  UNL1       -0.2904
     30 C          60.6182   92.4189    3.0626 C.ar    1  UNL1        0.0318
     31 C          62.0893   92.3591    3.3499 C.ar    1  UNL1        0.0024
     32 C          63.0681   92.9447    2.3757 C.ar    1  UNL1        0.0001
     33 C          62.5759   93.5901    1.1143 C.ar    1  UNL1        0.0023
     34 C          61.1049   93.6498    0.8270 C.ar    1  UNL1        0.0296
     35 C          60.1260   93.0642    1.8012 C.ar    1  UNL1        0.1402
     36 F          58.6550   93.1239    1.5139 F       1  UNL1       -0.2042
@<TRIPOS>BOND
     1     1     2    2
     2     2     3   am
     3     3     4    1
     4     4     5   ar
     5     5     6   ar
     6     6    19    1
     7    19    20   am
     8    20    21    2
     9    20    23    1
    10    23    24    1
    11    24    25    2
    12    25    26    1
    13    26    27    2
    14    27    30    1
    15    30    31   ar
    16    31    32   ar
    17    32    33   ar
    18    33    34   ar
    19    34    35   ar
    20    35    36    1
    21    27    28    1
    22    28    29    2
    23     6     7   ar
    24     7     8   ar
    25     8     9   ar
    26     9    10    1
    27    10    11    2
    28    11    13    1
    29    13    14   ar
    30    14    15   ar
    31    15    16   ar
    32    16    17   ar
    33    10     2    1
    34    17    13   ar
    35     9     4   ar
    36    28    23    1
    37    35    30   ar
    38     3    12    1
    39    19    22    1
    40    17    18    1
@<TRIPOS>MOLECULE
*****
 36 40 0 0 0
SMALL
GASTEIGER

@<TRIPOS>ATOM
      1 O          63.0646   93.9934   -0.8561 O.2     1  UNL1       -0.2698
      2 C          62.4179   93.4600    0.3878 C.2     1  UNL1        0.2496
      3 N          63.0376   92.5035    1.3630 N.am    1  UNL1       -0.2803
      4 C          62.0408   92.2418    2.4529 C.ar    1  UNL1        0.0519
      5 C          62.0987   91.3825    3.6810 C.ar    1  UNL1        0.0293
      6 C          60.9208   91.3180    4.6074 C.ar    1  UNL1        0.0516
      7 C          59.6850   92.1128    4.3058 C.ar    1  UNL1        0.0148
      8 C          59.6271   92.9722    3.0777 C.ar    1  UNL1        0.0026
      9 C          60.8050   93.0366    2.1513 C.ar    1  UNL1        0.0180
     10 C          61.0381   93.7895    0.8750 C.2     1  UNL1        0.0563
     11 C          60.0625   94.7102    0.2038 C.2     1  UNL1        0.0215
     12 H          63.9402   92.1155    1.2990 H       1  UNL1        0.1552
     13 C          60.4381   95.3973   -1.0757 C.ar    1  UNL1        0.0568
     14 C          59.8235   95.1513   -2.4218 C.ar    1  UNL1        0.0185
     15 C          60.4997   96.0528   -3.4117 C.ar    1  UNL1        0.0199
     16 C          61.5322   96.8559   -2.6776 C.ar    1  UNL1        0.0724
     17 N          61.4941   96.4507   -1.2338 N.ar    1  UNL1       -0.3520
     18 H          62.0624   96.8127   -0.5160 H       1  UNL1        0.1660
     19 N          60.9787   90.4587    5.8356 N.am    1  UNL1       -0.2832
     20 C          59.7288   89.8180    6.3622 C.2     1  UNL1        0.2388
     21 O          58.4211   90.0367    5.6608 O.2     1  UNL1       -0.2739
     22 H          61.8370   90.3151    6.2959 H       1  UNL1        0.1549
     23 C          59.7867   88.9587    7.5903 C.3     1  UNL1        0.1793
     24 C          58.9098   87.7466    7.6996 C.2     1  UNL1        0.0891
     25 N          58.9677   86.8873    8.9277 N.2     1  UNL1       -0.2459
     26 C          59.9024   87.2401   10.0465 C.2     1  UNL1        0.1014
     27 C          60.7793   88.4522    9.9373 C.2     1  UNL1        0.0568
     28 C          60.7214   89.3115    8.7092 C.2     1  UNL1        0.1886
     29 O          61.5983   90.5236    8.6000 O.2     1  UNL1       -0.2904
     30 C          61.7140   88.8050   11.0561 C.ar    1  UNL1        0.0318
     31 C          61.7571   90.2088   11.5830 C.ar    1  UNL1        0.0024
     32 C          62.6918   90.5615   12.7018 C.ar    1  UNL1        0.0001
     33 C          63.5835   89.5106   13.2938 C.ar    1  UNL1        0.0023
     34 C          63.5404   88.1069   12.7669 C.ar    1  UNL1        0.0296
     35 C          62.6057   87.7540   11.6481 C.ar    1  UNL1        0.1402
     36 F          62.5626   86.3503   11.1212 F       1  UNL1       -0.2042
@<TRIPOS>BOND
     1     1     2    2
     2     2     3   am
     3     3     4    1
     4     4     5   ar
     5     5     6   ar
     6     6    19    1
     7    19    20   am
     8    20    21    2
     9    20    23    1
    10    23    24    1
    11    24    25    2
    12    25    26    1
    13    26    27    2
    14    27    30    1
    15    30    31   ar
    16    31    32   ar
    17    32    33   ar
    18    33    34   ar
    19    34    35   ar
    20    35    36    1
    21    27    28    1
    22    28    29    2
    23     6     7   ar
    24     7     8   ar
    25     8     9   ar
    26     9    10    1
    27    10    11    2
    28    11    13    1
    29    13    14   ar
    30    14    15   ar
    31    15    16   ar
    32    16    17   ar
    33    10     2    1
    34    17    13   ar
    35     9     4   ar
    36    28    23    1
    37    35    30   ar
    38     3    12    1
    39    19    22    1
    40    17    18    1
@<TRIPOS>MOLECULE
*****
 36 40 0 0 0
SMALL
GASTEIGER

@<TRIPOS>ATOM
      1 O          57.5993   90.4594    6.2413 O.2     1  UNL1       -0.2698
      2 C          58.5591   91.0447    5.2482 C.2     1  UNL1        0.2496
      3 N          58.2132   92.0018    4.1462 N.am    1  UNL1       -0.2803
      4 C          59.4736   92.3242    3.3996 C.ar    1  UNL1        0.0519
      5 C          59.7424   93.2100    2.2194 C.ar    1  UNL1        0.0293
      6 C          61.1360   93.3379    1.6796 C.ar    1  UNL1        0.0516
      7 C          62.2609   92.5800    2.3201 C.ar    1  UNL1        0.0148
      8 C          61.9921   91.6942    3.5003 C.ar    1  UNL1        0.0026
      9 C          60.5985   91.5663    4.0401 C.ar    1  UNL1        0.0180
     10 C          60.0333   90.7755    5.1826 C.2     1  UNL1        0.0563
     11 C          60.8065   89.8739    6.0986 C.2     1  UNL1        0.0215
     12 H          57.3164   92.3562    3.9479 H       1  UNL1        0.1552
     13 C          60.1015   89.1438    7.2032 C.ar    1  UNL1        0.0568
     14 C          60.2954   89.3695    8.6734 C.ar    1  UNL1        0.0185
     15 C          59.3927   88.4251    9.4104 C.ar    1  UNL1        0.0199
     16 C          58.6409   87.6157    8.3957 C.ar    1  UNL1        0.0724
     17 N          59.0790   88.0599    7.0316 N.ar    1  UNL1       -0.3520
     18 H          58.7526   87.7027    6.1742 H       1  UNL1        0.1660
     19 N          61.4048   94.2237    0.4992 N.am    1  UNL1       -0.2832
     20 C          61.0356   93.7667   -0.8810 C.2     1  UNL1        0.2388
     21 O          60.3976   92.4238   -1.0808 O.2     1  UNL1       -0.2739
     22 H          61.8235   95.1050    0.6304 H       1  UNL1        0.1549
     23 C          61.3044   94.6524   -2.0613 C.3     1  UNL1        0.1793
     24 C          60.5984   95.9699   -2.1865 C.2     1  UNL1        0.0891
     25 N          60.8672   96.8557   -3.3669 N.2     1  UNL1       -0.2459
     26 C          61.8420   96.4239   -4.4220 C.2     1  UNL1        0.1014
     27 C          62.5480   95.1063   -4.2968 C.2     1  UNL1        0.0568
     28 C          62.2792   94.2206   -3.1165 C.2     1  UNL1        0.1886
     29 O          62.9852   92.9031   -2.9913 O.2     1  UNL1       -0.2904
     30 C          63.5227   94.6745   -5.3519 C.ar    1  UNL1        0.0318
     31 C          63.0797   93.7551   -6.4512 C.ar    1  UNL1        0.0024
     32 C          64.0544   93.3233   -7.5063 C.ar    1  UNL1        0.0001
     33 C          65.4723   93.8109   -7.4622 C.ar    1  UNL1        0.0023
     34 C          65.9154   94.7303   -6.3630 C.ar    1  UNL1        0.0296
     35 C          64.9406   95.1621   -5.3078 C.ar    1  UNL1        0.1402
     36 F          65.3837   96.0815   -4.2086 F       1  UNL1       -0.2042
@<TRIPOS>BOND
     1     1     2    2
     2     2     3   am
     3     3     4    1
     4     4     5   ar
     5     5     6   ar
     6     6    19    1
     7    19    20   am
     8    20    21    2
     9    20    23    1
    10    23    24    1
    11    24    25    2
    12    25    26    1
    13    26    27    2
    14    27    30    1
    15    30    31   ar
    16    31    32   ar
    17    32    33   ar
    18    33    34   ar
    19    34    35   ar
    20    35    36    1
    21    27    28    1
    22    28    29    2
    23     6     7   ar
    24     7     8   ar
    25     8     9   ar
    26     9    10    1
    27    10    11    2
    28    11    13    1
    29    13    14   ar
    30    14    15   ar
    31    15    16   ar
    32    16    17   ar
    33    10     2    1
    34    17    13   ar
    35     9     4   ar
    36    28    23    1
    37    35    30   ar
    38     3    12    1
    39    19    22    1
    40    17    18    1
