@<TRIPOS>MOLECULE
*****
 36 40 0 0 0
SMALL
GASTEIGER

@<TRIPOS>ATOM
      1 N          62.3237   87.3140   11.9139 N.ar    1  UNL1       -0.2558
      2 N          61.3673   88.1216   11.0873 N.ar    1  UNL1       -0.1727
      3 C          61.4981   89.5583   11.4984 C.ar    1  UNL1        0.0935
      4 C          60.7271   90.7120   10.9289 C.3     1  UNL1        0.0553
      5 C          62.5353   89.6385   12.5791 C.ar    1  UNL1        0.0792
      6 C          63.0455   88.2514   12.8358 C.ar    1  UNL1        0.0704
      7 C          64.0935   87.8691   13.8385 C.3     1  UNL1        0.0531
      8 C          63.1215   81.3761   11.5893 C.2     1  UNL1        0.2558
      9 O          63.3084   80.7163   10.2553 O.2     1  UNL1       -0.2721
     10 N          62.9220   82.8606   11.6704 N.am    1  UNL1       -0.2774
     11 C          62.7351   83.5204   13.0045 C.3     1  UNL1        0.0955
     12 C          62.5357   85.0049   13.0857 C.3     1  UNL1        0.0459
     13 C          62.5231   85.8295   11.8327 C.3     1  UNL1        0.1083
     14 C          62.7100   85.1697   10.4988 C.3     1  UNL1        0.0459
     15 C          62.9095   83.6853   10.4175 C.3     1  UNL1        0.0955
     16 C          63.1340   80.5515   12.8423 C.3     1  UNL1        0.2272
     17 C          60.8944   80.7553   14.1431 C.3     1  UNL1        0.1748
     18 O          61.8635   79.9335   13.3461 O.3     1  UNL1       -0.3417
     19 N          62.9836   90.8867   13.2799 N.pl3   1  UNL1       -0.2806
     20 H          62.3224   91.4688   13.7195 H       1  UNL1        0.1551
     21 C          64.4391   91.2479   13.3109 C.ar    1  UNL1        0.2208
     22 N          65.2548   90.9701   14.5387 N.ar    1  UNL1       -0.2111
     23 C          66.7103   91.3314   14.5697 C.ar    1  UNL1        0.1147
     24 C          67.3501   91.9705   13.3729 C.ar    1  UNL1        0.0946
     25 CL         68.8056   92.3318   13.4039 Cl      1  UNL1       -0.0790
     26 C          66.5343   92.2483   12.1451 C.ar    1  UNL1        0.0992
     27 N          65.0789   91.8870   12.1141 N.ar    1  UNL1       -0.2126
     28 C          67.1741   92.8874   10.9483 C.ar    1  UNL1        0.0572
     29 C          68.2223   92.2675   10.0726 C.ar    1  UNL1        0.1235
     30 N          68.5740   93.2557    9.0003 N.ar    1  UNL1       -0.1634
     31 N          67.7432   94.4863    9.2133 N.ar    1  UNL1       -0.2281
     32 C          67.6627   95.7846    8.4664 C.ar    1  UNL1        0.1004
     33 C          66.7170   96.8553    8.9236 C.ar    1  UNL1        0.0207
     34 C          65.8517   96.6278   10.1276 C.ar    1  UNL1        0.0031
     35 C          65.9322   95.3294   10.8744 C.ar    1  UNL1        0.0193
     36 C          66.8780   94.2587   10.4173 C.ar    1  UNL1        0.0858
@<TRIPOS>BOND
     1    17    18    1
     2    18    16    1
     3    16     8    1
     4     8     9    2
     5     8    10   am
     6    10    11    1
     7    11    12    1
     8    12    13    1
     9    13     1    1
    10     1     2   ar
    11     2     3   ar
    12     3     4    1
    13     3     5   ar
    14     5    19    1
    15    19    21    1
    16    21    22   ar
    17    22    23   ar
    18    23    24   ar
    19    24    25    1
    20    24    26   ar
    21    26    28    1
    22    28    29   ar
    23    29    30   ar
    24    30    31   ar
    25    31    32   ar
    26    32    33   ar
    27    33    34   ar
    28    34    35   ar
    29    35    36   ar
    30    26    27   ar
    31     5     6   ar
    32     6     7    1
    33    13    14    1
    34    14    15    1
    35    15    10    1
    36     6     1   ar
    37    27    21   ar
    38    36    28   ar
    39    36    31   ar
    40    19    20    1
@<TRIPOS>MOLECULE
*****
 36 40 0 0 0
SMALL
GASTEIGER

@<TRIPOS>ATOM
      1 N          63.9301   88.4155   15.2131 N.ar    1  UNL1       -0.2558
      2 N          63.2121   88.5051   16.5271 N.ar    1  UNL1       -0.1727
      3 C          63.0584   87.1141   17.0672 C.ar    1  UNL1        0.0935
      4 C          62.3978   86.7384   18.3604 C.3     1  UNL1        0.0553
      5 C          63.6815   86.1649   16.0870 C.ar    1  UNL1        0.0792
      6 C          64.2202   86.9692   14.9411 C.ar    1  UNL1        0.0704
      7 C          64.9252   86.4231   13.7351 C.3     1  UNL1        0.0531
      8 C          65.3860   93.0319   11.6678 C.2     1  UNL1        0.2558
      9 O          64.6924   93.2136   10.3503 O.2     1  UNL1       -0.2721
     10 N          65.0220   91.8777   12.5542 N.am    1  UNL1       -0.2774
     11 C          65.7157   91.6961   13.8716 C.3     1  UNL1        0.0955
     12 C          65.3517   90.5419   14.7580 C.3     1  UNL1        0.0459
     13 C          64.2941   89.5696   14.3268 C.3     1  UNL1        0.1083
     14 C          63.6005   89.7513   13.0094 C.3     1  UNL1        0.0459
     15 C          63.9644   90.9054   12.1230 C.3     1  UNL1        0.0955
     16 C          66.4437   94.0043   12.0990 C.3     1  UNL1        0.2272
     17 C          66.0817   96.3936   11.1451 C.3     1  UNL1        0.1748
     18 O          66.8624   95.1133   11.1799 O.3     1  UNL1       -0.3417
     19 N          63.7532   84.6733   16.2280 N.pl3   1  UNL1       -0.2806
     20 H          63.9887   84.2716   17.0954 H       1  UNL1        0.1551
     21 C          63.4663   83.7936   15.0474 C.ar    1  UNL1        0.2208
     22 N          63.2382   82.3243   15.2447 N.ar    1  UNL1       -0.2111
     23 C          62.9512   81.4446   14.0641 C.ar    1  UNL1        0.1147
     24 C          62.8923   82.0343   12.6861 C.ar    1  UNL1        0.0946
     25 CL         62.6054   81.1547   11.5055 Cl      1  UNL1       -0.0790
     26 C          63.1204   83.5038   12.4888 C.ar    1  UNL1        0.0992
     27 N          63.4073   84.3833   13.6694 N.ar    1  UNL1       -0.2126
     28 C          63.0615   84.0935   11.1108 C.ar    1  UNL1        0.0572
     29 C          63.7922   83.5865    9.9029 C.ar    1  UNL1        0.1235
     30 N          63.4438   84.4734    8.7444 N.ar    1  UNL1       -0.1634
     31 N          62.4978   85.5285    9.2364 N.ar    1  UNL1       -0.2281
     32 C          61.8210   86.6726    8.5416 C.ar    1  UNL1        0.1004
     33 C          60.9080   87.5820    9.3093 C.ar    1  UNL1        0.0207
     34 C          60.6717   87.3471   10.7718 C.ar    1  UNL1        0.0031
     35 C          61.3485   86.2030   11.4666 C.ar    1  UNL1        0.0193
     36 C          62.2615   85.2936   10.6989 C.ar    1  UNL1        0.0858
@<TRIPOS>BOND
     1    17    18    1
     2    18    16    1
     3    16     8    1
     4     8     9    2
     5     8    10   am
     6    10    11    1
     7    11    12    1
     8    12    13    1
     9    13     1    1
    10     1     2   ar
    11     2     3   ar
    12     3     4    1
    13     3     5   ar
    14     5    19    1
    15    19    21    1
    16    21    22   ar
    17    22    23   ar
    18    23    24   ar
    19    24    25    1
    20    24    26   ar
    21    26    28    1
    22    28    29   ar
    23    29    30   ar
    24    30    31   ar
    25    31    32   ar
    26    32    33   ar
    27    33    34   ar
    28    34    35   ar
    29    35    36   ar
    30    26    27   ar
    31     5     6   ar
    32     6     7    1
    33    13    14    1
    34    14    15    1
    35    15    10    1
    36     6     1   ar
    37    27    21   ar
    38    36    28   ar
    39    36    31   ar
    40    19    20    1
@<TRIPOS>MOLECULE
*****
 36 40 0 0 0
SMALL
GASTEIGER

@<TRIPOS>ATOM
      1 N          63.4064   87.1751   13.3815 N.ar    1  UNL1       -0.2558
      2 N          63.2290   88.0063   12.1454 N.ar    1  UNL1       -0.1727
      3 C          63.1934   89.4481   12.5575 C.ar    1  UNL1        0.0935
      4 C          63.0310   90.6236   11.6401 C.3     1  UNL1        0.0553
      5 C          63.3489   89.5080   14.0483 C.ar    1  UNL1        0.0792
      6 C          63.4805   88.1032   14.5575 C.ar    1  UNL1        0.0704
      7 C          63.6555   87.6978   15.9909 C.3     1  UNL1        0.0531
      8 C          63.7580   81.1888   13.5855 C.2     1  UNL1        0.2558
      9 O          64.7236   80.5258   14.5226 O.2     1  UNL1       -0.2721
     10 N          63.6702   82.6855   13.5345 N.am    1  UNL1       -0.2774
     11 C          62.7046   83.3485   12.5974 C.3     1  UNL1        0.0955
     12 C          62.6167   84.8451   12.5464 C.3     1  UNL1        0.0459
     13 C          63.4943   85.6785   13.4325 C.3     1  UNL1        0.1083
     14 C          64.4598   85.0155   14.3695 C.3     1  UNL1        0.0459
     15 C          64.5478   83.5189   14.4206 C.3     1  UNL1        0.0955
     16 C          62.8804   80.3554   12.6994 C.3     1  UNL1        0.2272
     17 C          60.8371   80.7440   14.2563 C.3     1  UNL1        0.1748
     18 O          61.5016   79.9761   13.1523 O.3     1  UNL1       -0.3417
     19 N          63.3691   90.7540   14.8832 N.pl3   1  UNL1       -0.2806
     20 H          62.5909   90.9862   15.4399 H       1  UNL1        0.1551
     21 C          64.5748   91.6462   14.8701 C.ar    1  UNL1        0.2208
     22 N          65.4177   91.7862   16.1029 N.ar    1  UNL1       -0.2111
     23 C          66.6234   92.6784   16.0898 C.ar    1  UNL1        0.1147
     24 C          66.9863   93.4306   14.8438 C.ar    1  UNL1        0.0946
     25 CL         68.1920   94.3228   14.8307 Cl      1  UNL1       -0.0790
     26 C          66.1433   93.2906   13.6109 C.ar    1  UNL1        0.0992
     27 N          64.9377   92.3985   13.6241 N.ar    1  UNL1       -0.2126
     28 C          66.5062   94.0429   12.3649 C.ar    1  UNL1        0.0572
     29 C          66.2642   95.5018   12.1138 C.ar    1  UNL1        0.1235
     30 N          66.7832   95.8288   10.7450 N.ar    1  UNL1       -0.1634
     31 N          67.3459   94.5720   10.1501 N.ar    1  UNL1       -0.2281
     32 C          67.9921   94.2901    8.8261 C.ar    1  UNL1        0.1004
     33 C          68.4670   92.9044    8.5034 C.ar    1  UNL1        0.0207
     34 C          68.2958   91.8006    9.5045 C.ar    1  UNL1        0.0031
     35 C          67.6496   92.0826   10.8285 C.ar    1  UNL1        0.0193
     36 C          67.1747   93.4682   11.1513 C.ar    1  UNL1        0.0858
@<TRIPOS>BOND
     1    17    18    1
     2    18    16    1
     3    16     8    1
     4     8     9    2
     5     8    10   am
     6    10    11    1
     7    11    12    1
     8    12    13    1
     9    13     1    1
    10     1     2   ar
    11     2     3   ar
    12     3     4    1
    13     3     5   ar
    14     5    19    1
    15    19    21    1
    16    21    22   ar
    17    22    23   ar
    18    23    24   ar
    19    24    25    1
    20    24    26   ar
    21    26    28    1
    22    28    29   ar
    23    29    30   ar
    24    30    31   ar
    25    31    32   ar
    26    32    33   ar
    27    33    34   ar
    28    34    35   ar
    29    35    36   ar
    30    26    27   ar
    31     5     6   ar
    32     6     7    1
    33    13    14    1
    34    14    15    1
    35    15    10    1
    36     6     1   ar
    37    27    21   ar
    38    36    28   ar
    39    36    31   ar
    40    19    20    1
@<TRIPOS>MOLECULE
*****
 36 40 0 0 0
SMALL
GASTEIGER

@<TRIPOS>ATOM
      1 N          62.3452   90.5974   12.7492 N.ar    1  UNL1       -0.2558
      2 N          61.1230   90.0379   13.4152 N.ar    1  UNL1       -0.1727
      3 C          60.1330   89.6842   12.3453 C.ar    1  UNL1        0.0935
      4 C          58.7718   89.0933   12.5642 C.3     1  UNL1        0.0553
      5 C          60.7433   90.0250   11.0181 C.ar    1  UNL1        0.0792
      6 C          62.1105   90.5894   11.2678 C.ar    1  UNL1        0.0704
      7 C          63.0737   91.0627   10.2199 C.3     1  UNL1        0.0531
      8 C          67.3022   92.5283   15.5241 C.2     1  UNL1        0.2558
      9 O          67.4638   92.3217   17.0010 O.2     1  UNL1       -0.2721
     10 N          66.0629   92.0455   14.8304 N.am    1  UNL1       -0.2774
     11 C          65.9015   92.2522   13.3535 C.3     1  UNL1        0.0955
     12 C          64.6621   91.7694   12.6597 C.3     1  UNL1        0.0459
     13 C          63.5844   91.0801   13.4429 C.3     1  UNL1        0.1083
     14 C          63.7460   90.8735   14.9198 C.3     1  UNL1        0.0459
     15 C          64.9852   91.3562   15.6136 C.3     1  UNL1        0.0955
     16 C          68.3799   93.2176   14.7409 C.3     1  UNL1        0.2272
     17 C          69.0695   91.6439   12.7921 C.3     1  UNL1        0.1748
     18 O          69.4258   92.4091   14.0321 O.3     1  UNL1       -0.3417
     19 N          60.0993   89.8348    9.6768 N.pl3   1  UNL1       -0.2806
     20 H          59.5780   90.5658    9.2729 H       1  UNL1        0.1551
     21 C          60.2497   88.5309    8.9507 C.ar    1  UNL1        0.2208
     22 N          59.3946   88.2358    7.7542 N.ar    1  UNL1       -0.2111
     23 C          59.5449   86.9319    7.0281 C.ar    1  UNL1        0.1147
     24 C          60.5503   85.9230    7.4986 C.ar    1  UNL1        0.0946
     25 CL         60.7007   84.6191    6.7725 Cl      1  UNL1       -0.0790
     26 C          61.4055   86.2181    8.6952 C.ar    1  UNL1        0.0992
     27 N          61.2551   87.5220    9.4212 N.ar    1  UNL1       -0.2126
     28 C          62.4109   85.2093    9.1657 C.ar    1  UNL1        0.0572
     29 C          63.2982   84.3745    8.2906 C.ar    1  UNL1        0.1235
     30 N          64.1412   83.5075    9.1780 N.ar    1  UNL1       -0.1634
     31 N          63.7749   83.8063   10.6015 N.ar    1  UNL1       -0.2281
     32 C          64.2770   83.2566   11.9037 C.ar    1  UNL1        0.1004
     33 C          63.7097   83.7587   13.1983 C.ar    1  UNL1        0.0207
     34 C          62.6403   84.8105   13.1907 C.ar    1  UNL1        0.0031
     35 C          62.1382   85.3602   11.8885 C.ar    1  UNL1        0.0193
     36 C          62.7055   84.8581   10.5940 C.ar    1  UNL1        0.0858
@<TRIPOS>BOND
     1    17    18    1
     2    18    16    1
     3    16     8    1
     4     8     9    2
     5     8    10   am
     6    10    11    1
     7    11    12    1
     8    12    13    1
     9    13     1    1
    10     1     2   ar
    11     2     3   ar
    12     3     4    1
    13     3     5   ar
    14     5    19    1
    15    19    21    1
    16    21    22   ar
    17    22    23   ar
    18    23    24   ar
    19    24    25    1
    20    24    26   ar
    21    26    28    1
    22    28    29   ar
    23    29    30   ar
    24    30    31   ar
    25    31    32   ar
    26    32    33   ar
    27    33    34   ar
    28    34    35   ar
    29    35    36   ar
    30    26    27   ar
    31     5     6   ar
    32     6     7    1
    33    13    14    1
    34    14    15    1
    35    15    10    1
    36     6     1   ar
    37    27    21   ar
    38    36    28   ar
    39    36    31   ar
    40    19    20    1
@<TRIPOS>MOLECULE
*****
 36 40 0 0 0
SMALL
GASTEIGER

@<TRIPOS>ATOM
      1 N          62.5089   90.1560   11.2761 N.ar    1  UNL1       -0.2558
      2 N          61.5708   90.8518   10.3347 N.ar    1  UNL1       -0.1727
      3 C          60.8716   89.8049    9.5190 C.ar    1  UNL1        0.0935
      4 C          59.8466   90.0566    8.4533 C.3     1  UNL1        0.0553
      5 C          61.3776   88.4622    9.9563 C.ar    1  UNL1        0.0792
      6 C          62.3895   88.6792   11.0422 C.ar    1  UNL1        0.0704
      7 C          63.1485   87.6075   11.7669 C.3     1  UNL1        0.0531
      8 C          66.1071   92.8137   15.2748 C.2     1  UNL1        0.2558
      9 O          65.9155   92.5606   16.7408 O.2     1  UNL1       -0.2721
     10 N          65.2075   92.1492   14.2751 N.am    1  UNL1       -0.2774
     11 C          65.3992   92.4023   12.8091 C.3     1  UNL1        0.0955
     12 C          64.4996   91.7379   11.8094 C.3     1  UNL1        0.0459
     13 C          63.4084   90.8204   12.2757 C.3     1  UNL1        0.1083
     14 C          63.2168   90.5673   13.7417 C.3     1  UNL1        0.0459
     15 C          64.1163   91.2317   14.7415 C.3     1  UNL1        0.0955
     16 C          67.1983   93.7312   14.8084 C.3     1  UNL1        0.2272
     17 C          69.1840   92.5432   15.9897 C.3     1  UNL1        0.1748
     18 O          68.6218   93.2585   14.7971 O.3     1  UNL1       -0.3417
     19 N          60.9472   87.1354    9.4045 N.pl3   1  UNL1       -0.2806
     20 H          60.1139   87.0654    8.8848 H       1  UNL1        0.1551
     21 C          61.7862   85.9154    9.6445 C.ar    1  UNL1        0.2208
     22 N          62.5518   85.2972    8.5124 N.ar    1  UNL1       -0.2111
     23 C          63.3908   84.0772    8.7524 C.ar    1  UNL1        0.1147
     24 C          63.4642   83.4754   10.1244 C.ar    1  UNL1        0.0946
     25 CL         64.3032   82.2553   10.3644 Cl      1  UNL1       -0.0790
     26 C          62.6984   84.0937   11.2566 C.ar    1  UNL1        0.0992
     27 N          61.8595   85.3136   11.0165 N.ar    1  UNL1       -0.2126
     28 C          62.7718   83.4919   12.6286 C.ar    1  UNL1        0.0572
     29 C          62.4211   82.0794   12.9917 C.ar    1  UNL1        0.1235
     30 N          62.6413   81.9115   14.4659 N.ar    1  UNL1       -0.1634
     31 N          63.1281   83.2202   15.0139 N.ar    1  UNL1       -0.2281
     32 C          63.5083   83.6487   16.4002 C.ar    1  UNL1        0.1004
     33 C          63.9691   85.0539   16.6509 C.ar    1  UNL1        0.0207
     34 C          64.0498   86.0307   15.5154 C.ar    1  UNL1        0.0031
     35 C          63.6696   85.6022   14.1291 C.ar    1  UNL1        0.0193
     36 C          63.2087   84.1970   13.8784 C.ar    1  UNL1        0.0858
@<TRIPOS>BOND
     1    17    18    1
     2    18    16    1
     3    16     8    1
     4     8     9    2
     5     8    10   am
     6    10    11    1
     7    11    12    1
     8    12    13    1
     9    13     1    1
    10     1     2   ar
    11     2     3   ar
    12     3     4    1
    13     3     5   ar
    14     5    19    1
    15    19    21    1
    16    21    22   ar
    17    22    23   ar
    18    23    24   ar
    19    24    25    1
    20    24    26   ar
    21    26    28    1
    22    28    29   ar
    23    29    30   ar
    24    30    31   ar
    25    31    32   ar
    26    32    33   ar
    27    33    34   ar
    28    34    35   ar
    29    35    36   ar
    30    26    27   ar
    31     5     6   ar
    32     6     7    1
    33    13    14    1
    34    14    15    1
    35    15    10    1
    36     6     1   ar
    37    27    21   ar
    38    36    28   ar
    39    36    31   ar
    40    19    20    1
