@<TRIPOS>MOLECULE
*****
 42 45 0 0 0
SMALL
GASTEIGER

@<TRIPOS>ATOM
      1 C          64.1874   85.3648   13.7707 C.3     1  UNL1        0.1484
      2 O          65.3679   84.4394   13.7581 O.3     1  UNL1       -0.3810
      3 H          66.1783   84.9468   13.9213 H       1  UNL1        0.2105
      4 C          64.3870   86.8317   14.0127 C.3     1  UNL1        0.1245
      5 N          64.0263   87.4286   15.3407 N.am    1  UNL1       -0.2735
      6 C          63.8316   88.9104   15.4689 C.2     1  UNL1        0.2492
      7 O          63.4710   89.5073   16.7970 O.2     1  UNL1       -0.2699
      8 C          63.9977   89.7953   14.2691 C.ar    1  UNL1        0.0567
      9 C          63.1529   89.5721   13.0500 C.ar    1  UNL1        0.0063
     10 C          63.3189   90.4570   11.8503 C.ar    1  UNL1        0.0224
     11 C          64.3298   91.5651   11.8697 C.ar    1  UNL1        0.1185
     12 N          64.7149   92.5905   10.8448 N.ar    1  UNL1       -0.2121
     13 C          65.7978   93.4473   11.4307 C.ar    1  UNL1        0.2052
     14 O          66.0819   92.9515   12.8176 O.2     1  UNL1       -0.4384
     15 C          65.1746   91.7882   13.0889 C.ar    1  UNL1        0.1645
     16 C          65.0085   90.9033   14.2886 C.ar    1  UNL1        0.0436
     17 C          66.4773   94.5980   10.7492 C.3     1  UNL1        0.0766
     18 C          66.1824   96.0045   11.1792 C.3     1  UNL1        0.0097
     19 C          67.4517   94.3422    9.6379 C.3     1  UNL1        0.0097
     20 C          63.8603   86.5437   16.5405 C.3     1  UNL1        0.0937
     21 C          61.2846   86.2229   16.6549 C.3     1  UNL1        0.0018
     22 C          62.5810   86.5735   17.3231 C.3     1  UNL1        0.0199
     23 C          62.5980   86.9540   18.7740 C.3     1  UNL1        0.0018
     24 C          62.8075   84.8234   13.5413 C.3     1  UNL1        0.1075
     25 N          61.8951   85.4893   12.5542 N.am    1  UNL1       -0.2695
     26 C          62.1179   85.3027   11.0827 C.2     1  UNL1        0.4020
     27 O          63.2532   84.4502   10.5982 O.2     1  UNL1       -0.2264
     28 H          61.1500   86.0487   12.8722 H       1  UNL1        0.1528
     29 O          61.2056   85.9685   10.0956 O.3     1  UNL1       -0.4291
     30 C          61.4802   87.3742    9.6502 C.3     1  UNL1        0.2447
     31 C          60.7185   88.5154   10.2566 C.ar    1  UNL1        0.0714
     32 C          60.5745   89.8891    9.6715 C.ar    1  UNL1        0.1053
     33 N          59.7341   90.7059   10.6077 N.ar    1  UNL1       -0.2350
     34 C          59.3586   89.8370   11.7714 C.ar    1  UNL1        0.1343
     35 S          59.9671   88.4832   11.5544 S.2     1  UNL1       -0.0652
     36 C          62.3399   83.6162   14.2989 C.3     1  UNL1        0.0485
     37 C          62.3844   82.2626   13.6543 C.ar    1  UNL1       -0.0204
     38 C          61.6558   81.1099   14.2792 C.ar    1  UNL1       -0.0042
     39 C          61.7003   79.7562   13.6345 C.ar    1  UNL1       -0.0003
     40 C          62.4734   79.5552   12.3650 C.ar    1  UNL1       -0.0000
     41 C          63.2020   80.7079   11.7400 C.ar    1  UNL1       -0.0003
     42 C          63.1575   82.0615   12.3847 C.ar    1  UNL1       -0.0042
@<TRIPOS>BOND
     1    21    22    1
     2    22    23    1
     3    22    20    1
     4    20     5    1
     5     5     4    1
     6     4     1    1
     7     1     2    1
     8     1    24    1
     9    24    36    1
    10    36    37    1
    11    37    38   ar
    12    38    39   ar
    13    39    40   ar
    14    40    41   ar
    15    41    42   ar
    16    24    25    1
    17    25    26   am
    18    26    27    2
    19    26    29    1
    20    29    30    1
    21    30    31    1
    22    31    32   ar
    23    32    33   ar
    24    33    34   ar
    25    34    35   ar
    26     5     6   am
    27     6     7    2
    28     6     8    1
    29     8     9   ar
    30     9    10   ar
    31    10    11   ar
    32    11    12   ar
    33    12    13   ar
    34    13    17    1
    35    17    18    1
    36    17    19    1
    37    13    14   ar
    38    14    15   ar
    39    15    16   ar
    40    42    37   ar
    41    35    31   ar
    42    16     8   ar
    43    15    11   ar
    44     2     3    1
    45    25    28    1
@<TRIPOS>MOLECULE
*****
 42 45 0 0 0
SMALL
GASTEIGER

@<TRIPOS>ATOM
      1 C          62.7591   89.7325   12.9968 C.3     1  UNL1        0.1484
      2 O          61.5406   89.9886   13.8332 O.3     1  UNL1       -0.3810
      3 H          60.7735   89.5542   13.4285 H       1  UNL1        0.2105
      4 C          62.6519   88.9090   11.7476 C.3     1  UNL1        0.1245
      5 N          61.4651   89.0680   10.8441 N.am    1  UNL1       -0.2735
      6 C          60.9857   87.9069   10.0244 C.2     1  UNL1        0.2492
      7 O          59.7989   88.0658    9.1209 O.2     1  UNL1       -0.2699
      8 C          61.6932   86.5868   10.1081 C.ar    1  UNL1        0.0567
      9 C          62.5344   86.1126    8.9603 C.ar    1  UNL1        0.0063
     10 C          63.2418   84.7926    9.0441 C.ar    1  UNL1        0.0224
     11 C          63.1079   83.9467   10.2755 C.ar    1  UNL1        0.1185
     12 N          63.6828   82.6108   10.6430 N.ar    1  UNL1       -0.2121
     13 C          63.1968   82.2594   12.0179 C.ar    1  UNL1        0.2052
     14 O          62.3215   83.3781   12.5001 O.2     1  UNL1       -0.4384
     15 C          62.2666   84.4209   11.4233 C.ar    1  UNL1        0.1645
     16 C          61.5592   85.7409   11.3395 C.ar    1  UNL1        0.0436
     17 C          63.5279   81.0088   12.7773 C.3     1  UNL1        0.0766
     18 C          64.6076   81.0273   13.8183 C.3     1  UNL1        0.0097
     19 C          62.7792   79.7399   12.4956 C.3     1  UNL1        0.0097
     20 C          60.7577   90.3881   10.7604 C.3     1  UNL1        0.0937
     21 C          58.7912   91.9334   11.4638 C.3     1  UNL1        0.0018
     22 C          59.4615   90.5917   11.4872 C.3     1  UNL1        0.0199
     23 C          58.8354   89.4536   12.2375 C.3     1  UNL1        0.0018
     24 C          64.0849   90.2999   13.4095 C.3     1  UNL1        0.1075
     25 N          64.7057   91.4104   12.6147 N.am    1  UNL1       -0.2695
     26 C          65.4112   92.5321   13.3176 C.2     1  UNL1        0.4020
     27 O          65.4960   92.5434   14.8152 O.2     1  UNL1       -0.2264
     28 H          64.6500   91.4030   11.6318 H       1  UNL1        0.1528
     29 O          66.0319   93.6425   12.5229 O.3     1  UNL1       -0.4291
     30 C          66.4440   93.4070   11.0999 C.3     1  UNL1        0.2447
     31 C          66.7894   94.5693   10.2169 C.ar    1  UNL1        0.0714
     32 C          67.4422   94.4890    8.8688 C.ar    1  UNL1        0.1053
     33 N          67.5990   95.8860    8.3456 N.ar    1  UNL1       -0.2350
     34 C          67.0431   96.8298    9.3705 C.ar    1  UNL1        0.1343
     35 S          66.5428   96.0160   10.5270 S.2     1  UNL1       -0.0652
     36 C          64.7900   89.7569   14.6170 C.3     1  UNL1        0.0485
     37 C          64.2374   88.5603   15.3331 C.ar    1  UNL1       -0.0204
     38 C          63.3728   88.7446   16.5450 C.ar    1  UNL1       -0.0042
     39 C          62.8203   87.5480   17.2611 C.ar    1  UNL1       -0.0003
     40 C          63.1324   86.1671   16.7654 C.ar    1  UNL1       -0.0000
     41 C          63.9969   85.9828   15.5536 C.ar    1  UNL1       -0.0003
     42 C          64.5495   87.1794   14.8375 C.ar    1  UNL1       -0.0042
@<TRIPOS>BOND
     1    21    22    1
     2    22    23    1
     3    22    20    1
     4    20     5    1
     5     5     4    1
     6     4     1    1
     7     1     2    1
     8     1    24    1
     9    24    36    1
    10    36    37    1
    11    37    38   ar
    12    38    39   ar
    13    39    40   ar
    14    40    41   ar
    15    41    42   ar
    16    24    25    1
    17    25    26   am
    18    26    27    2
    19    26    29    1
    20    29    30    1
    21    30    31    1
    22    31    32   ar
    23    32    33   ar
    24    33    34   ar
    25    34    35   ar
    26     5     6   am
    27     6     7    2
    28     6     8    1
    29     8     9   ar
    30     9    10   ar
    31    10    11   ar
    32    11    12   ar
    33    12    13   ar
    34    13    17    1
    35    17    18    1
    36    17    19    1
    37    13    14   ar
    38    14    15   ar
    39    15    16   ar
    40    42    37   ar
    41    35    31   ar
    42    16     8   ar
    43    15    11   ar
    44     2     3    1
    45    25    28    1
@<TRIPOS>MOLECULE
*****
 42 45 0 0 0
SMALL
GASTEIGER

@<TRIPOS>ATOM
      1 C          62.6090   86.2484    9.5758 C.3     1  UNL1        0.1484
      2 O          62.9549   85.7738    8.1956 O.3     1  UNL1       -0.3810
      3 H          63.1031   86.5390    7.6182 H       1  UNL1        0.2105
      4 C          62.5407   87.7181    9.8684 C.3     1  UNL1        0.1245
      5 N          61.2089   88.3923   10.0159 N.am    1  UNL1       -0.2735
      6 C          61.1286   89.7778   10.5849 C.2     1  UNL1        0.2492
      7 O          59.7968   90.4520   10.7325 O.2     1  UNL1       -0.2699
      8 C          62.3801   90.4893   11.0064 C.ar    1  UNL1        0.0567
      9 C          63.1246   91.3433   10.0233 C.ar    1  UNL1        0.0063
     10 C          64.3761   92.0546   10.4448 C.ar    1  UNL1        0.0224
     11 C          64.8831   91.9120   11.8493 C.ar    1  UNL1        0.1185
     12 N          66.0788   92.4883   12.5481 N.ar    1  UNL1       -0.2121
     13 C          66.0732   91.9904   13.9631 C.ar    1  UNL1        0.2052
     14 O          64.8741   91.1065   14.1387 O.2     1  UNL1       -0.4384
     15 C          64.1386   91.0580   12.8323 C.ar    1  UNL1        0.1645
     16 C          62.8871   90.3466   12.4109 C.ar    1  UNL1        0.0436
     17 C          67.0885   92.3188   15.0173 C.3     1  UNL1        0.0766
     18 C          66.6418   92.6650   16.4068 C.3     1  UNL1        0.0097
     19 C          68.5505   92.3009   14.6821 C.3     1  UNL1        0.0097
     20 C          59.9573   87.6808    9.5945 C.3     1  UNL1        0.0937
     21 C          59.3846   88.8202    7.3309 C.3     1  UNL1        0.0018
     22 C          59.6076   87.5767    8.1396 C.3     1  UNL1        0.0199
     23 C          59.4808   86.2289    7.4933 C.3     1  UNL1        0.0018
     24 C          62.3314   85.2535   10.6635 C.3     1  UNL1        0.1075
     25 N          62.3700   83.7842   10.3637 N.am    1  UNL1       -0.2695
     26 C          63.6817   83.0567   10.3456 C.2     1  UNL1        0.4020
     27 O          64.9547   83.7985   10.6273 O.2     1  UNL1       -0.2264
     28 H          61.5345   83.2974   10.1788 H       1  UNL1        0.1528
     29 O          63.7203   81.5875   10.0458 O.3     1  UNL1       -0.4291
     30 C          63.0766   80.6128   10.9868 C.3     1  UNL1        0.2447
     31 C          62.8982   80.9720   12.4322 C.ar    1  UNL1        0.0714
     32 C          63.9930   81.1081   13.4485 C.ar    1  UNL1        0.1053
     33 N          63.3652   81.4783   14.7595 N.ar    1  UNL1       -0.2350
     34 C          61.8822   81.5709   14.5535 C.ar    1  UNL1        0.1343
     35 S          61.5936   81.2580   13.1151 S.2     1  UNL1       -0.0652
     36 C          62.0152   85.7278   12.0509 C.3     1  UNL1        0.0485
     37 C          63.1125   85.8678   13.0639 C.ar    1  UNL1       -0.0204
     38 C          63.8035   84.6468   13.5947 C.ar    1  UNL1       -0.0042
     39 C          64.9009   84.7868   14.6078 C.ar    1  UNL1       -0.0003
     40 C          65.3072   86.1478   15.0900 C.ar    1  UNL1       -0.0000
     41 C          64.6162   87.3688   14.5592 C.ar    1  UNL1       -0.0003
     42 C          63.5189   87.2288   13.5462 C.ar    1  UNL1       -0.0042
@<TRIPOS>BOND
     1    21    22    1
     2    22    23    1
     3    22    20    1
     4    20     5    1
     5     5     4    1
     6     4     1    1
     7     1     2    1
     8     1    24    1
     9    24    36    1
    10    36    37    1
    11    37    38   ar
    12    38    39   ar
    13    39    40   ar
    14    40    41   ar
    15    41    42   ar
    16    24    25    1
    17    25    26   am
    18    26    27    2
    19    26    29    1
    20    29    30    1
    21    30    31    1
    22    31    32   ar
    23    32    33   ar
    24    33    34   ar
    25    34    35   ar
    26     5     6   am
    27     6     7    2
    28     6     8    1
    29     8     9   ar
    30     9    10   ar
    31    10    11   ar
    32    11    12   ar
    33    12    13   ar
    34    13    17    1
    35    17    18    1
    36    17    19    1
    37    13    14   ar
    38    14    15   ar
    39    15    16   ar
    40    42    37   ar
    41    35    31   ar
    42    16     8   ar
    43    15    11   ar
    44     2     3    1
    45    25    28    1
@<TRIPOS>MOLECULE
*****
 42 45 0 0 0
SMALL
GASTEIGER

@<TRIPOS>ATOM
      1 C          62.4418   86.3575   11.6491 C.3     1  UNL1        0.1484
      2 O          61.2719   85.4394   11.4535 O.3     1  UNL1       -0.3810
      3 H          60.6807   85.8082   10.7787 H       1  UNL1        0.2105
      4 C          62.5454   87.6216   10.8481 C.3     1  UNL1        0.1245
      5 N          61.3097   88.4083   10.5253 N.am    1  UNL1       -0.2735
      6 C          61.3218   89.9039   10.6386 C.2     1  UNL1        0.2492
      7 O          60.0861   90.6906   10.3158 O.2     1  UNL1       -0.2699
      8 C          62.5697   90.6129   11.0748 C.ar    1  UNL1        0.0567
      9 C          63.3204   91.4755   10.1041 C.ar    1  UNL1        0.0063
     10 C          64.5682   92.1845   10.5403 C.ar    1  UNL1        0.0224
     11 C          65.0653   92.0309   11.9472 C.ar    1  UNL1        0.1185
     12 N          66.2554   92.6025   12.6592 N.ar    1  UNL1       -0.2121
     13 C          66.2402   92.0931   14.0700 C.ar    1  UNL1        0.2052
     14 O          65.0406   91.2068   14.2298 O.2     1  UNL1       -0.4384
     15 C          64.3145   91.1683   12.9179 C.ar    1  UNL1        0.1645
     16 C          63.0667   90.4594   12.4817 C.ar    1  UNL1        0.0436
     17 C          67.2476   92.4138   15.1341 C.3     1  UNL1        0.0766
     18 C          66.7917   92.7285   16.5281 C.3     1  UNL1        0.0097
     19 C          68.7108   92.4197   14.8043 C.3     1  UNL1        0.0097
     20 C          60.0618   87.6992   10.0891 C.3     1  UNL1        0.0937
     21 C          60.4502   86.0211    8.1442 C.3     1  UNL1        0.0018
     22 C          59.8821   87.3136    8.6507 C.3     1  UNL1        0.0199
     23 C          59.1344   88.2206    7.7188 C.3     1  UNL1        0.0018
     24 C          63.5082   86.0117   12.6457 C.3     1  UNL1        0.1075
     25 N          64.0012   84.5993   12.7569 N.am    1  UNL1       -0.2695
     26 C          64.1095   83.7439   11.5294 C.2     1  UNL1        0.4020
     27 O          63.7249   84.3010   10.1908 O.2     1  UNL1       -0.2264
     28 H          64.2536   84.2338   13.6355 H       1  UNL1        0.1528
     29 O          64.6024   82.3316   11.6406 O.3     1  UNL1       -0.4291
     30 C          64.4553   81.5855   12.9335 C.3     1  UNL1        0.2447
     31 C          63.0925   81.1925   13.4218 C.ar    1  UNL1        0.0714
     32 C          62.1677   82.0471   14.2370 C.ar    1  UNL1        0.1053
     33 N          60.9189   81.2588   14.4997 N.ar    1  UNL1       -0.2350
     34 C          61.0719   79.9170   13.8469 C.ar    1  UNL1        0.1343
     35 S          62.4153   79.8760   13.1807 S.2     1  UNL1       -0.0652
     36 C          64.0817   87.0781   13.5310 C.3     1  UNL1        0.0485
     37 C          63.6816   87.1494   14.9748 C.ar    1  UNL1       -0.0204
     38 C          63.4878   88.4826   15.6344 C.ar    1  UNL1       -0.0042
     39 C          63.0877   88.5539   17.0784 C.ar    1  UNL1       -0.0003
     40 C          62.8814   87.2920   17.8627 C.ar    1  UNL1       -0.0000
     41 C          63.0753   85.9588   17.2031 C.ar    1  UNL1       -0.0003
     42 C          63.4754   85.8875   15.7592 C.ar    1  UNL1       -0.0042
@<TRIPOS>BOND
     1    21    22    1
     2    22    23    1
     3    22    20    1
     4    20     5    1
     5     5     4    1
     6     4     1    1
     7     1     2    1
     8     1    24    1
     9    24    36    1
    10    36    37    1
    11    37    38   ar
    12    38    39   ar
    13    39    40   ar
    14    40    41   ar
    15    41    42   ar
    16    24    25    1
    17    25    26   am
    18    26    27    2
    19    26    29    1
    20    29    30    1
    21    30    31    1
    22    31    32   ar
    23    32    33   ar
    24    33    34   ar
    25    34    35   ar
    26     5     6   am
    27     6     7    2
    28     6     8    1
    29     8     9   ar
    30     9    10   ar
    31    10    11   ar
    32    11    12   ar
    33    12    13   ar
    34    13    17    1
    35    17    18    1
    36    17    19    1
    37    13    14   ar
    38    14    15   ar
    39    15    16   ar
    40    42    37   ar
    41    35    31   ar
    42    16     8   ar
    43    15    11   ar
    44     2     3    1
    45    25    28    1
@<TRIPOS>MOLECULE
*****
 42 45 0 0 0
SMALL
GASTEIGER

@<TRIPOS>ATOM
      1 C          63.8987   88.3777   14.8234 C.3     1  UNL1        0.1484
      2 O          63.4777   88.8691   16.1766 O.3     1  UNL1       -0.3810
      3 H          63.6170   88.1685   16.8328 H       1  UNL1        0.2105
      4 C          64.4360   86.9862   14.6645 C.3     1  UNL1        0.1245
      5 N          63.9017   85.8740   15.5175 N.am    1  UNL1       -0.2735
      6 C          63.3968   84.6146   14.8781 C.2     1  UNL1        0.2492
      7 O          62.8625   83.5024   15.7311 O.2     1  UNL1       -0.2699
      8 C          63.4262   84.4673   13.3856 C.ar    1  UNL1        0.0567
      9 C          64.5108   83.6627   12.7326 C.ar    1  UNL1        0.0063
     10 C          64.5402   83.5154   11.2402 C.ar    1  UNL1        0.0224
     11 C          63.4850   84.1727   10.4007 C.ar    1  UNL1        0.1185
     12 N          63.2570   84.2041    8.9184 N.ar    1  UNL1       -0.2121
     13 C          62.0315   85.0281    8.6554 C.ar    1  UNL1        0.2052
     14 O          61.5022   85.5059    9.9751 O.2     1  UNL1       -0.4384
     15 C          62.4005   84.9773   11.0537 C.ar    1  UNL1        0.1645
     16 C          62.3711   85.1245   12.5461 C.ar    1  UNL1        0.0436
     17 C          61.4392   85.3225    7.3090 C.3     1  UNL1        0.0766
     18 C          62.0371   84.7111    6.0767 C.3     1  UNL1        0.0097
     19 C          60.2492   86.2284    7.1951 C.3     1  UNL1        0.0097
     20 C          63.8722   86.0213   17.0101 C.3     1  UNL1        0.0937
     21 C          61.2939   86.3394   16.9827 C.3     1  UNL1        0.0018
     22 C          62.6085   86.4471   17.6969 C.3     1  UNL1        0.0199
     23 C          62.6595   86.9806   19.0979 C.3     1  UNL1        0.0018
     24 C          63.7825   89.2777   13.6291 C.3     1  UNL1        0.1075
     25 N          63.9279   90.7618   13.7913 N.am    1  UNL1       -0.2695
     26 C          65.2312   91.3413   14.2556 C.2     1  UNL1        0.4020
     27 O          66.3891   90.4367   14.5576 O.2     1  UNL1       -0.2264
     28 H          63.1680   91.3555   13.5931 H       1  UNL1        0.1528
     29 O          65.3767   92.8254   14.4179 O.3     1  UNL1       -0.4291
     30 C          66.5123   93.5448   13.7524 C.3     1  UNL1        0.2447
     31 C          66.4642   93.8215   12.2789 C.ar    1  UNL1        0.0714
     32 C          66.2072   95.1541   11.6400 C.ar    1  UNL1        0.1053
     33 N          66.2488   94.9704   10.1519 N.ar    1  UNL1       -0.2350
     34 C          66.5317   93.5243    9.8711 C.ar    1  UNL1        0.1343
     35 S          66.6648   92.8143   11.1857 S.2     1  UNL1       -0.0652
     36 C          63.5208   88.6936   12.2725 C.3     1  UNL1        0.0485
     37 C          62.3030   89.1067   11.5003 C.ar    1  UNL1       -0.0204
     38 C          61.1866   89.8317   12.1918 C.ar    1  UNL1       -0.0042
     39 C          59.9688   90.2448   11.4196 C.ar    1  UNL1       -0.0003
     40 C          59.8673   89.9329    9.9559 C.ar    1  UNL1       -0.0000
     41 C          60.9837   89.2079    9.2644 C.ar    1  UNL1       -0.0003
     42 C          62.2015   88.7948   10.0366 C.ar    1  UNL1       -0.0042
@<TRIPOS>BOND
     1    21    22    1
     2    22    23    1
     3    22    20    1
     4    20     5    1
     5     5     4    1
     6     4     1    1
     7     1     2    1
     8     1    24    1
     9    24    36    1
    10    36    37    1
    11    37    38   ar
    12    38    39   ar
    13    39    40   ar
    14    40    41   ar
    15    41    42   ar
    16    24    25    1
    17    25    26   am
    18    26    27    2
    19    26    29    1
    20    29    30    1
    21    30    31    1
    22    31    32   ar
    23    32    33   ar
    24    33    34   ar
    25    34    35   ar
    26     5     6   am
    27     6     7    2
    28     6     8    1
    29     8     9   ar
    30     9    10   ar
    31    10    11   ar
    32    11    12   ar
    33    12    13   ar
    34    13    17    1
    35    17    18    1
    36    17    19    1
    37    13    14   ar
    38    14    15   ar
    39    15    16   ar
    40    42    37   ar
    41    35    31   ar
    42    16     8   ar
    43    15    11   ar
    44     2     3    1
    45    25    28    1
@<TRIPOS>MOLECULE
*****
 42 45 0 0 0
SMALL
GASTEIGER

@<TRIPOS>ATOM
      1 C          62.6227   86.0168   10.3582 C.3     1  UNL1        0.1484
      2 O          62.7418   85.7861    8.8809 O.3     1  UNL1       -0.3810
      3 H          62.6337   86.6285    8.4124 H       1  UNL1        0.2105
      4 C          62.3730   87.3994   10.8837 C.3     1  UNL1        0.1245
      5 N          61.1724   88.1714   10.4228 N.am    1  UNL1       -0.2735
      6 C          61.1834   89.6708   10.4648 C.2     1  UNL1        0.2492
      7 O          59.9828   90.4428   10.0039 O.2     1  UNL1       -0.2699
      8 C          62.3950   90.3982   10.9677 C.ar    1  UNL1        0.0567
      9 C          63.1585   91.3072   10.0508 C.ar    1  UNL1        0.0063
     10 C          64.3700   92.0345   10.5537 C.ar    1  UNL1        0.0224
     11 C          64.8182   91.8528   11.9736 C.ar    1  UNL1        0.1185
     12 N          65.9656   92.4334   12.7461 N.ar    1  UNL1       -0.2121
     13 C          65.9112   91.8831   14.1404 C.ar    1  UNL1        0.2052
     14 O          64.7303   90.9625   14.2297 O.2     1  UNL1       -0.4384
     15 C          64.0548   90.9438   12.8906 C.ar    1  UNL1        0.1645
     16 C          62.8432   90.2165   12.3876 C.ar    1  UNL1        0.0436
     17 C          66.8695   92.1981   15.2507 C.3     1  UNL1        0.0766
     18 C          68.3474   92.0848   15.0205 C.3     1  UNL1        0.0097
     19 C          66.3499   92.6264   16.5910 C.3     1  UNL1        0.0097
     20 C          59.9607   87.4441    9.9199 C.3     1  UNL1        0.0937
     21 C          59.3684   88.5422    7.6410 C.3     1  UNL1        0.0018
     22 C          59.7163   87.3245    8.4448 C.3     1  UNL1        0.0199
     23 C          59.8199   85.9871    7.7734 C.3     1  UNL1        0.0018
     24 C          62.7531   84.8649   11.3102 C.3     1  UNL1        0.1075
     25 N          63.2934   85.0907   12.6912 N.am    1  UNL1       -0.2695
     26 C          64.5202   84.3569   13.1458 C.2     1  UNL1        0.4020
     27 O          65.2066   83.3973   12.2195 O.2     1  UNL1       -0.2264
     28 H          62.8429   85.7205   13.2991 H       1  UNL1        0.1528
     29 O          65.0605   84.5826   14.5268 O.3     1  UNL1       -0.4291
     30 C          64.1193   84.7371   15.6844 C.3     1  UNL1        0.2447
     31 C          63.6943   86.1056   16.1281 C.ar    1  UNL1        0.0714
     32 C          63.9843   87.3932   15.4153 C.ar    1  UNL1        0.1053
     33 N          63.3740   88.5101   16.2089 N.ar    1  UNL1       -0.2350
     34 C          62.7067   87.9128   17.4123 C.ar    1  UNL1        0.1343
     35 S          62.9047   86.4268   17.3623 S.2     1  UNL1       -0.0652
     36 C          62.3433   83.4872   10.8811 C.3     1  UNL1        0.0485
     37 C          62.3185   82.3674   11.8787 C.ar    1  UNL1       -0.0204
     38 C          61.8205   82.6149   13.2718 C.ar    1  UNL1       -0.0042
     39 C          61.7956   81.4949   14.2695 C.ar    1  UNL1       -0.0003
     40 C          62.2687   80.1276   13.8740 C.ar    1  UNL1       -0.0000
     41 C          62.7667   79.8801   12.4809 C.ar    1  UNL1       -0.0003
     42 C          62.7916   80.9999   11.4832 C.ar    1  UNL1       -0.0042
@<TRIPOS>BOND
     1    21    22    1
     2    22    23    1
     3    22    20    1
     4    20     5    1
     5     5     4    1
     6     4     1    1
     7     1     2    1
     8     1    24    1
     9    24    36    1
    10    36    37    1
    11    37    38   ar
    12    38    39   ar
    13    39    40   ar
    14    40    41   ar
    15    41    42   ar
    16    24    25    1
    17    25    26   am
    18    26    27    2
    19    26    29    1
    20    29    30    1
    21    30    31    1
    22    31    32   ar
    23    32    33   ar
    24    33    34   ar
    25    34    35   ar
    26     5     6   am
    27     6     7    2
    28     6     8    1
    29     8     9   ar
    30     9    10   ar
    31    10    11   ar
    32    11    12   ar
    33    12    13   ar
    34    13    17    1
    35    17    18    1
    36    17    19    1
    37    13    14   ar
    38    14    15   ar
    39    15    16   ar
    40    42    37   ar
    41    35    31   ar
    42    16     8   ar
    43    15    11   ar
    44     2     3    1
    45    25    28    1
@<TRIPOS>MOLECULE
*****
 42 45 0 0 0
SMALL
GASTEIGER

@<TRIPOS>ATOM
      1 C          63.1458   88.5496   12.7805 C.3     1  UNL1        0.1484
      2 O          62.9299   87.1454   12.2993 O.3     1  UNL1       -0.3810
      3 H          63.5539   86.5514   12.7450 H       1  UNL1        0.2105
      4 C          64.2062   88.8378   13.8016 C.3     1  UNL1        0.1245
      5 N          63.8277   89.0432   15.2385 N.am    1  UNL1       -0.2735
      6 C          63.5747   87.8592   16.1240 C.2     1  UNL1        0.2492
      7 O          63.1962   88.0645   17.5609 O.2     1  UNL1       -0.2699
      8 C          63.7002   86.4698   15.5727 C.ar    1  UNL1        0.0567
      9 C          65.0301   85.9720   15.0893 C.ar    1  UNL1        0.0063
     10 C          65.1556   84.5827   14.5381 C.ar    1  UNL1        0.0224
     11 C          63.9512   83.6911   14.4701 C.ar    1  UNL1        0.1185
     12 N          63.7698   82.2848   13.9807 N.ar    1  UNL1       -0.2121
     13 C          62.3278   81.9135   14.1616 C.ar    1  UNL1        0.2052
     14 O          61.6180   83.0903   14.7628 O.2     1  UNL1       -0.4384
     15 C          62.6213   84.1889   14.9535 C.ar    1  UNL1        0.1645
     16 C          62.4959   85.5782   15.5047 C.ar    1  UNL1        0.0436
     17 C          61.7048   80.5966   13.8041 C.3     1  UNL1        0.0766
     18 C          60.2798   80.3148   14.1781 C.3     1  UNL1        0.0097
     19 C          62.5069   79.5615   13.0725 C.3     1  UNL1        0.0097
     20 C          63.7022   90.4326   15.7898 C.3     1  UNL1        0.0937
     21 C          65.0774   92.4387   16.7030 C.3     1  UNL1        0.0018
     22 C          64.8377   91.4020   15.6458 C.3     1  UNL1        0.0199
     23 C          65.7335   91.3347   14.4445 C.3     1  UNL1        0.0018
     24 C          62.3014   89.6656   12.2407 C.3     1  UNL1        0.1075
     25 N          62.8939   91.0307   12.0519 N.am    1  UNL1       -0.2695
     26 C          63.5436   91.3926   10.7492 C.2     1  UNL1        0.4020
     27 O          63.6007   90.3895    9.6353 O.2     1  UNL1       -0.2264
     28 H          62.8565   91.6890   12.7829 H       1  UNL1        0.1528
     29 O          64.1361   92.7576   10.5603 O.3     1  UNL1       -0.4291
     30 C          65.3982   93.1333   11.2786 C.3     1  UNL1        0.2447
     31 C          66.6764   93.3004   10.5115 C.ar    1  UNL1        0.0714
     32 C          67.2017   94.5851    9.9426 C.ar    1  UNL1        0.1053
     33 N          68.5036   94.2910    9.2581 N.ar    1  UNL1       -0.2350
     34 C          68.7829   92.8244    9.4039 C.ar    1  UNL1        0.1343
     35 S          67.6536   92.2123   10.1786 S.2     1  UNL1       -0.0652
     36 C          60.8645   89.4166   11.8897 C.3     1  UNL1        0.0485
     37 C          60.5101   88.8159   10.5618 C.ar    1  UNL1       -0.0204
     38 C          60.4714   87.3252   10.3992 C.ar    1  UNL1       -0.0042
     39 C          60.1170   86.7245    9.0712 C.ar    1  UNL1       -0.0003
     40 C          59.8013   87.6145    7.9058 C.ar    1  UNL1       -0.0000
     41 C          59.8400   89.1051    8.0683 C.ar    1  UNL1       -0.0003
     42 C          60.1944   89.7059    9.3962 C.ar    1  UNL1       -0.0042
@<TRIPOS>BOND
     1    21    22    1
     2    22    23    1
     3    22    20    1
     4    20     5    1
     5     5     4    1
     6     4     1    1
     7     1     2    1
     8     1    24    1
     9    24    36    1
    10    36    37    1
    11    37    38   ar
    12    38    39   ar
    13    39    40   ar
    14    40    41   ar
    15    41    42   ar
    16    24    25    1
    17    25    26   am
    18    26    27    2
    19    26    29    1
    20    29    30    1
    21    30    31    1
    22    31    32   ar
    23    32    33   ar
    24    33    34   ar
    25    34    35   ar
    26     5     6   am
    27     6     7    2
    28     6     8    1
    29     8     9   ar
    30     9    10   ar
    31    10    11   ar
    32    11    12   ar
    33    12    13   ar
    34    13    17    1
    35    17    18    1
    36    17    19    1
    37    13    14   ar
    38    14    15   ar
    39    15    16   ar
    40    42    37   ar
    41    35    31   ar
    42    16     8   ar
    43    15    11   ar
    44     2     3    1
    45    25    28    1
@<TRIPOS>MOLECULE
*****
 42 45 0 0 0
SMALL
GASTEIGER

@<TRIPOS>ATOM
      1 C          62.7907   85.9692   12.0006 C.3     1  UNL1        0.1484
      2 O          61.9070   84.8991   11.4313 O.3     1  UNL1       -0.3810
      3 H          61.4534   85.2393   10.6442 H       1  UNL1        0.2105
      4 C          62.8587   87.3150   11.3416 C.3     1  UNL1        0.1245
      5 N          61.6096   87.9549   10.8122 N.am    1  UNL1       -0.2735
      6 C          61.5180   89.4484   10.7085 C.2     1  UNL1        0.2492
      7 O          60.2689   90.0883   10.1791 O.2     1  UNL1       -0.2699
      8 C          62.6756   90.3022   11.1341 C.ar    1  UNL1        0.0567
      9 C          63.2478   91.3158   10.1880 C.ar    1  UNL1        0.0063
     10 C          64.4053   92.1695   10.6137 C.ar    1  UNL1        0.0224
     11 C          64.9907   92.0097   11.9855 C.ar    1  UNL1        0.1185
     12 N          66.1246   92.7039   12.6801 N.ar    1  UNL1       -0.2121
     13 C          66.2531   92.1194   14.0555 C.ar    1  UNL1        0.2052
     14 O          65.1987   91.0639   14.2109 O.2     1  UNL1       -0.4384
     15 C          64.4185   90.9961   12.9316 C.ar    1  UNL1        0.1645
     16 C          63.2609   90.1424   12.5059 C.ar    1  UNL1        0.0436
     17 C          67.2593   92.5200   15.0933 C.3     1  UNL1        0.0766
     18 C          66.8147   92.8112   16.4960 C.3     1  UNL1        0.0097
     19 C          68.7101   92.6294   14.7284 C.3     1  UNL1        0.0097
     20 C          60.4520   87.1011   10.3866 C.3     1  UNL1        0.0937
     21 C          61.4061   85.9804    8.2456 C.3     1  UNL1        0.0018
     22 C          60.2985   86.7094    8.9468 C.3     1  UNL1        0.0199
     23 C          59.0372   87.0468    8.2081 C.3     1  UNL1        0.0018
     24 C          63.6063   85.6935   13.2289 C.3     1  UNL1        0.1075
     25 N          63.7917   84.2831   13.7051 N.am    1  UNL1       -0.2695
     26 C          62.7198   83.6187   14.5171 C.2     1  UNL1        0.4020
     27 O          61.4623   84.3645   14.8529 O.2     1  UNL1       -0.2264
     28 H          64.6170   83.7937   13.4847 H       1  UNL1        0.1528
     29 O          62.9051   82.2085   14.9933 O.3     1  UNL1       -0.4291
     30 C          63.4778   81.1742   14.0700 C.3     1  UNL1        0.2447
     31 C          63.6650   81.4888   12.6153 C.ar    1  UNL1        0.0714
     32 C          64.8151   82.2437   12.0174 C.ar    1  UNL1        0.1053
     33 N          64.5960   82.3251   10.5358 N.ar    1  UNL1       -0.2350
     34 C          63.3104   81.6205   10.2179 C.ar    1  UNL1        0.1343
     35 S          62.7351   81.1037   11.5031 S.2     1  UNL1       -0.0652
     36 C          64.2365   86.8280   13.9810 C.3     1  UNL1        0.0485
     37 C          63.7658   87.1634   15.3651 C.ar    1  UNL1       -0.0204
     38 C          63.5325   88.5937   15.7519 C.ar    1  UNL1       -0.0042
     39 C          63.0617   88.9291   17.1362 C.ar    1  UNL1       -0.0003
     40 C          62.8244   87.8341   18.1335 C.ar    1  UNL1       -0.0000
     41 C          63.0577   86.4038   17.7467 C.ar    1  UNL1       -0.0003
     42 C          63.5284   86.0684   16.3625 C.ar    1  UNL1       -0.0042
@<TRIPOS>BOND
     1    21    22    1
     2    22    23    1
     3    22    20    1
     4    20     5    1
     5     5     4    1
     6     4     1    1
     7     1     2    1
     8     1    24    1
     9    24    36    1
    10    36    37    1
    11    37    38   ar
    12    38    39   ar
    13    39    40   ar
    14    40    41   ar
    15    41    42   ar
    16    24    25    1
    17    25    26   am
    18    26    27    2
    19    26    29    1
    20    29    30    1
    21    30    31    1
    22    31    32   ar
    23    32    33   ar
    24    33    34   ar
    25    34    35   ar
    26     5     6   am
    27     6     7    2
    28     6     8    1
    29     8     9   ar
    30     9    10   ar
    31    10    11   ar
    32    11    12   ar
    33    12    13   ar
    34    13    17    1
    35    17    18    1
    36    17    19    1
    37    13    14   ar
    38    14    15   ar
    39    15    16   ar
    40    42    37   ar
    41    35    31   ar
    42    16     8   ar
    43    15    11   ar
    44     2     3    1
    45    25    28    1
@<TRIPOS>MOLECULE
*****
 42 45 0 0 0
SMALL
GASTEIGER

@<TRIPOS>ATOM
      1 C          63.4841   85.4295   13.3307 C.3     1  UNL1        0.1484
      2 O          63.3837   84.2526   14.2553 O.3     1  UNL1       -0.3810
      3 H          63.8325   84.4582   15.0903 H       1  UNL1        0.2105
      4 C          64.2027   86.6703   13.7714 C.3     1  UNL1        0.1245
      5 N          63.9480   87.2400   15.1354 N.am    1  UNL1       -0.2735
      6 C          63.8232   88.7237   15.3172 C.2     1  UNL1        0.2492
      7 O          63.5685   89.2934   16.6812 O.2     1  UNL1       -0.2699
      8 C          63.9531   89.6378   14.1349 C.ar    1  UNL1        0.0567
      9 C          63.0151   89.4986   12.9727 C.ar    1  UNL1        0.0063
     10 C          63.1450   90.4127   11.7905 C.ar    1  UNL1        0.0224
     11 C          64.2129   91.4658   11.7705 C.ar    1  UNL1        0.1185
     12 N          64.5808   92.5030   10.7512 N.ar    1  UNL1       -0.2121
     13 C          65.7461   93.2831   11.2835 C.ar    1  UNL1        0.2052
     14 O          66.0985   92.7281   12.6317 O.2     1  UNL1       -0.4384
     15 C          65.1510   91.6049   12.9327 C.ar    1  UNL1        0.1645
     16 C          65.0210   90.6909   14.1149 C.ar    1  UNL1        0.0436
     17 C          66.4378   94.4189   10.5894 C.3     1  UNL1        0.0766
     18 C          66.1689   95.8324   11.0136 C.3     1  UNL1        0.0097
     19 C          67.3981   94.1413    9.4711 C.3     1  UNL1        0.0097
     20 C          63.8181   86.3260   16.3177 C.3     1  UNL1        0.0937
     21 C          62.6506   86.7669   18.5964 C.3     1  UNL1        0.0018
     22 C          62.5745   86.3560   17.1558 C.3     1  UNL1        0.0199
     23 C          61.2546   85.9750   16.5533 C.3     1  UNL1        0.0018
     24 C          62.8661   85.3656   11.9655 C.3     1  UNL1        0.1075
     25 N          62.5850   84.0358   11.3309 N.am    1  UNL1       -0.2695
     26 C          63.7083   83.2307   10.7477 C.2     1  UNL1        0.4020
     27 O          65.1126   83.7554   10.7991 O.2     1  UNL1       -0.2264
     28 H          61.6633   83.6914   11.2972 H       1  UNL1        0.1528
     29 O          63.4273   81.9009   10.1132 O.3     1  UNL1       -0.4291
     30 C          63.0558   80.7255   10.9679 C.3     1  UNL1        0.2447
     31 C          62.8237   80.9109   12.4383 C.ar    1  UNL1        0.0714
     32 C          63.8861   81.0595   13.4868 C.ar    1  UNL1        0.1053
     33 N          63.2075   81.2207   14.8147 N.ar    1  UNL1       -0.2350
     34 C          61.7256   81.1719   14.5869 C.ar    1  UNL1        0.1343
     35 S          61.4885   80.9804   13.1182 S.2     1  UNL1       -0.0652
     36 C          62.5291   86.6315   11.2348 C.3     1  UNL1        0.0485
     37 C          61.6333   86.5876   10.0324 C.ar    1  UNL1       -0.0204
     38 C          60.2959   87.2659   10.0684 C.ar    1  UNL1       -0.0042
     39 C          59.4001   87.2221    8.8660 C.ar    1  UNL1       -0.0003
     40 C          59.8417   86.4999    7.6277 C.ar    1  UNL1       -0.0000
     41 C          61.1791   85.8216    7.5917 C.ar    1  UNL1       -0.0003
     42 C          62.0749   85.8654    8.7941 C.ar    1  UNL1       -0.0042
@<TRIPOS>BOND
     1    21    22    1
     2    22    23    1
     3    22    20    1
     4    20     5    1
     5     5     4    1
     6     4     1    1
     7     1     2    1
     8     1    24    1
     9    24    36    1
    10    36    37    1
    11    37    38   ar
    12    38    39   ar
    13    39    40   ar
    14    40    41   ar
    15    41    42   ar
    16    24    25    1
    17    25    26   am
    18    26    27    2
    19    26    29    1
    20    29    30    1
    21    30    31    1
    22    31    32   ar
    23    32    33   ar
    24    33    34   ar
    25    34    35   ar
    26     5     6   am
    27     6     7    2
    28     6     8    1
    29     8     9   ar
    30     9    10   ar
    31    10    11   ar
    32    11    12   ar
    33    12    13   ar
    34    13    17    1
    35    17    18    1
    36    17    19    1
    37    13    14   ar
    38    14    15   ar
    39    15    16   ar
    40    42    37   ar
    41    35    31   ar
    42    16     8   ar
    43    15    11   ar
    44     2     3    1
    45    25    28    1
