@<TRIPOS>MOLECULE
*****
 31 35 0 0 0
SMALL
GASTEIGER

@<TRIPOS>ATOM
      1 O          61.8531   88.5440   10.3260 O.2     1  UNL1       -0.2697
      2 C          62.5360   87.8559   11.4705 C.2     1  UNL1        0.2522
      3 N          62.4716   86.3573   11.4610 N.am    1  UNL1       -0.2793
      4 C          63.0483   85.3900   12.4518 C.ar    1  UNL1        0.0656
      5 C          62.7542   83.9704   12.0667 C.ar    1  UNL1        0.0335
      6 C          63.2437   82.8433   12.9269 C.ar    1  UNL1        0.0669
      7 C          64.0272   83.1357   14.1721 C.ar    1  UNL1        0.0189
      8 C          64.3213   84.5553   14.5572 C.ar    1  UNL1        0.0174
      9 C          63.8318   85.6824   13.6970 C.ar    1  UNL1        0.0631
     10 N          64.2321   87.0144   14.2589 N.pl3   1  UNL1       -0.2969
     11 C          63.9479   88.3828   13.7144 C.ar    1  UNL1        0.1361
     12 N          64.5317   89.4528   14.5887 N.ar    1  UNL1       -0.2344
     13 C          64.3606   90.8972   14.2221 C.ar    1  UNL1        0.0648
     14 C          63.6058   91.2717   12.9812 C.ar    1  UNL1        0.0153
     15 C          63.0220   90.2017   12.1069 C.ar    1  UNL1        0.0086
     16 C          63.1930   88.7573   12.4735 C.ar    1  UNL1        0.0853
     17 H          61.9868   85.9555   10.7042 H       1  UNL1        0.1552
     18 H          64.7500   86.9867   15.0958 H       1  UNL1        0.1536
     19 N          62.9496   81.4236   12.5419 N.ar    1  UNL1       -0.2857
     20 C          62.4807   80.3387   13.4654 C.ar    1  UNL1        0.1836
     21 N          62.3141   79.0843   12.6600 N.ar    1  UNL1       -0.2120
     22 C          62.6801   79.3940   11.2386 C.ar    1  UNL1        0.1575
     23 CL         62.6573   78.4275   10.0917 Cl      1  UNL1       -0.0597
     24 C          63.0728   80.8398   11.1656 C.ar    1  UNL1        0.1124
     25 C          64.9445   91.9670   15.0965 C.3     1  UNL1        0.0721
     26 C          66.4172   92.2487   15.0552 C.ar    1  UNL1       -0.0162
     27 C          67.0850   92.9215   16.2177 C.ar    1  UNL1       -0.0039
     28 C          68.5577   93.2032   16.1763 C.ar    1  UNL1       -0.0003
     29 C          69.3626   92.8121   14.9725 C.ar    1  UNL1       -0.0000
     30 C          68.6948   92.1393   13.8100 C.ar    1  UNL1       -0.0003
     31 C          67.2221   91.8576   13.8513 C.ar    1  UNL1       -0.0039
@<TRIPOS>BOND
     1     1     2    2
     2     2     3   am
     3     3     4    1
     4     4     5   ar
     5     5     6   ar
     6     6    19    1
     7    19    20   ar
     8    20    21   ar
     9    21    22   ar
    10    22    23    1
    11    22    24   ar
    12     6     7   ar
    13     7     8   ar
    14     8     9   ar
    15     9    10    1
    16    10    11    1
    17    11    12   ar
    18    12    13   ar
    19    13    25    1
    20    25    26    1
    21    26    27   ar
    22    27    28   ar
    23    28    29   ar
    24    29    30   ar
    25    30    31   ar
    26    13    14   ar
    27    14    15   ar
    28    15    16   ar
    29    16     2    1
    30     9     4   ar
    31    16    11   ar
    32    24    19   ar
    33    31    26   ar
    34     3    17    1
    35    10    18    1
@<TRIPOS>MOLECULE
*****
 31 35 0 0 0
SMALL
GASTEIGER

@<TRIPOS>ATOM
      1 O          61.8479   86.0083   12.0582 O.2     1  UNL1       -0.2697
      2 C          62.0881   87.4234   11.6226 C.2     1  UNL1        0.2522
      3 N          63.0405   88.2128   12.4710 N.am    1  UNL1       -0.2793
      4 C          63.4842   89.6358   12.3026 C.ar    1  UNL1        0.0656
      5 C          64.4508   90.0391   13.3763 C.ar    1  UNL1        0.0335
      6 C          65.0183   91.4275   13.3915 C.ar    1  UNL1        0.0669
      7 C          64.6192   92.4125   12.3330 C.ar    1  UNL1        0.0189
      8 C          63.6526   92.0092   11.2593 C.ar    1  UNL1        0.0174
      9 C          63.0851   90.6208   11.2441 C.ar    1  UNL1        0.0631
     10 N          62.1437   90.4261   10.0926 N.pl3   1  UNL1       -0.2969
     11 C          61.3689   89.1984    9.7152 C.ar    1  UNL1        0.1361
     12 N          60.5402   89.4295    8.4865 N.ar    1  UNL1       -0.2344
     13 C          59.6867   88.3243    7.9387 C.ar    1  UNL1        0.0648
     14 C          59.6620   86.9880    8.6195 C.ar    1  UNL1        0.0153
     15 C          60.4907   86.7569    9.8483 C.ar    1  UNL1        0.0086
     16 C          61.3442   87.8621   10.3961 C.ar    1  UNL1        0.0853
     17 H          63.4252   87.7336   13.2401 H       1  UNL1        0.1552
     18 H          62.0176   91.2075    9.5071 H       1  UNL1        0.1536
     19 N          65.9850   91.8309   14.4652 N.ar    1  UNL1       -0.2857
     20 C          65.6253   92.3505   15.8256 C.ar    1  UNL1        0.1836
     21 N          66.8991   92.6263   16.5682 N.ar    1  UNL1       -0.2120
     22 C          68.0461   92.2772   15.6667 C.ar    1  UNL1        0.1575
     23 CL         69.5023   92.3983   16.0054 Cl      1  UNL1       -0.0597
     24 C          67.4811   91.7856   14.3670 C.ar    1  UNL1        0.1124
     25 C          58.8580   88.5554    6.7099 C.3     1  UNL1        0.0721
     26 C          59.0220   89.8211    5.9218 C.ar    1  UNL1       -0.0162
     27 C          60.3812   90.2337    5.4399 C.ar    1  UNL1       -0.0039
     28 C          60.5451   91.4995    4.6518 C.ar    1  UNL1       -0.0003
     29 C          59.3499   92.3525    4.3456 C.ar    1  UNL1       -0.0000
     30 C          57.9907   91.9398    4.8275 C.ar    1  UNL1       -0.0003
     31 C          57.8267   90.6742    5.6156 C.ar    1  UNL1       -0.0039
@<TRIPOS>BOND
     1     1     2    2
     2     2     3   am
     3     3     4    1
     4     4     5   ar
     5     5     6   ar
     6     6    19    1
     7    19    20   ar
     8    20    21   ar
     9    21    22   ar
    10    22    23    1
    11    22    24   ar
    12     6     7   ar
    13     7     8   ar
    14     8     9   ar
    15     9    10    1
    16    10    11    1
    17    11    12   ar
    18    12    13   ar
    19    13    25    1
    20    25    26    1
    21    26    27   ar
    22    27    28   ar
    23    28    29   ar
    24    29    30   ar
    25    30    31   ar
    26    13    14   ar
    27    14    15   ar
    28    15    16   ar
    29    16     2    1
    30     9     4   ar
    31    16    11   ar
    32    24    19   ar
    33    31    26   ar
    34     3    17    1
    35    10    18    1
@<TRIPOS>MOLECULE
*****
 31 35 0 0 0
SMALL
GASTEIGER

@<TRIPOS>ATOM
      1 O          62.2488   86.0829   18.1096 O.2     1  UNL1       -0.2697
      2 C          62.6863   86.1201   16.6753 C.2     1  UNL1        0.2522
      3 N          62.6047   84.8175   15.9360 N.am    1  UNL1       -0.2793
      4 C          62.9642   84.5280   14.5087 C.ar    1  UNL1        0.0656
      5 C          62.7315   83.0862   14.1666 C.ar    1  UNL1        0.0335
      6 C          63.0287   82.5861   12.7840 C.ar    1  UNL1        0.0669
      7 C          63.5585   83.5278   11.7436 C.ar    1  UNL1        0.0189
      8 C          63.7911   84.9696   12.0857 C.ar    1  UNL1        0.0174
      9 C          63.4940   85.4697   13.4683 C.ar    1  UNL1        0.0631
     10 N          63.7951   86.9334   13.5982 N.pl3   1  UNL1       -0.2969
     11 C          63.6410   87.8170   14.8005 C.ar    1  UNL1        0.1361
     12 N          64.0577   89.2266   14.5018 N.ar    1  UNL1       -0.2344
     13 C          63.9809   90.2743   15.5725 C.ar    1  UNL1        0.0648
     14 C          63.4875   89.9123   16.9419 C.ar    1  UNL1        0.0153
     15 C          63.0707   88.5026   17.2407 C.ar    1  UNL1        0.0086
     16 C          63.1474   87.4550   16.1699 C.ar    1  UNL1        0.0853
     17 H          62.2711   84.0512   16.4563 H       1  UNL1        0.1552
     18 H          64.1396   87.3722   12.7870 H       1  UNL1        0.1536
     19 N          62.7960   81.1443   12.4419 N.ar    1  UNL1       -0.2857
     20 C          62.3080   80.0826   13.3823 C.ar    1  UNL1        0.1836
     21 N          62.2209   78.7932   12.6208 N.ar    1  UNL1       -0.2120
     22 C          62.6552   79.0580   11.2096 C.ar    1  UNL1        0.1575
     23 CL         62.7223   78.0472   10.1034 Cl      1  UNL1       -0.0597
     24 C          63.0107   80.5111   11.0991 C.ar    1  UNL1        0.1124
     25 C          64.3977   91.6839   15.2737 C.3     1  UNL1        0.0721
     26 C          65.8525   92.0233   15.1388 C.ar    1  UNL1       -0.0162
     27 C          66.5625   92.7366   16.2510 C.ar    1  UNL1       -0.0039
     28 C          68.0174   93.0760   16.1161 C.ar    1  UNL1       -0.0003
     29 C          68.7622   92.7021   14.8689 C.ar    1  UNL1       -0.0000
     30 C          68.0522   91.9888   13.7567 C.ar    1  UNL1       -0.0003
     31 C          66.5974   91.6494   13.8916 C.ar    1  UNL1       -0.0039
@<TRIPOS>BOND
     1     1     2    2
     2     2     3   am
     3     3     4    1
     4     4     5   ar
     5     5     6   ar
     6     6    19    1
     7    19    20   ar
     8    20    21   ar
     9    21    22   ar
    10    22    23    1
    11    22    24   ar
    12     6     7   ar
    13     7     8   ar
    14     8     9   ar
    15     9    10    1
    16    10    11    1
    17    11    12   ar
    18    12    13   ar
    19    13    25    1
    20    25    26    1
    21    26    27   ar
    22    27    28   ar
    23    28    29   ar
    24    29    30   ar
    25    30    31   ar
    26    13    14   ar
    27    14    15   ar
    28    15    16   ar
    29    16     2    1
    30     9     4   ar
    31    16    11   ar
    32    24    19   ar
    33    31    26   ar
    34     3    17    1
    35    10    18    1
@<TRIPOS>MOLECULE
*****
 31 35 0 0 0
SMALL
GASTEIGER

@<TRIPOS>ATOM
      1 O          61.2941   88.4241    9.6360 O.2     1  UNL1       -0.2697
      2 C          62.1128   88.0709   10.8422 C.2     1  UNL1        0.2522
      3 N          61.9770   86.6591   11.3303 N.am    1  UNL1       -0.2793
      4 C          62.6539   86.0039   12.4976 C.ar    1  UNL1        0.0656
      5 C          62.2370   84.5699   12.6386 C.ar    1  UNL1        0.0335
      6 C          62.8000   83.7308   13.7472 C.ar    1  UNL1        0.0669
      7 C          63.7798   84.3256   14.7147 C.ar    1  UNL1        0.0189
      8 C          64.1967   85.7596   14.5736 C.ar    1  UNL1        0.0174
      9 C          63.6337   86.5987   13.4651 C.ar    1  UNL1        0.0631
     10 N          64.1786   87.9957   13.5042 N.pl3   1  UNL1       -0.2969
     11 C          63.8784   89.1429   12.5856 C.ar    1  UNL1        0.1361
     12 N          64.6404   90.3737   12.9786 N.ar    1  UNL1       -0.2344
     13 C          64.4830   91.6379   12.1868 C.ar    1  UNL1        0.0648
     14 C          63.5637   91.6714   11.0022 C.ar    1  UNL1        0.0153
     15 C          62.8016   90.4406   10.6091 C.ar    1  UNL1        0.0086
     16 C          62.9590   89.1763   11.4009 C.ar    1  UNL1        0.0853
     17 H          61.3624   86.0868   10.8166 H       1  UNL1        0.1552
     18 H          64.8179   88.1847   14.2287 H       1  UNL1        0.1536
     19 N          62.3832   82.2967   13.8882 N.ar    1  UNL1       -0.2857
     20 C          63.2991   81.1089   13.8950 C.ar    1  UNL1        0.1836
     21 N          62.4592   79.8769   14.0582 N.ar    1  UNL1       -0.2120
     22 C          61.0241   80.3033   14.1524 C.ar    1  UNL1        0.1575
     23 CL         59.8434   79.3938   14.3218 Cl      1  UNL1       -0.0597
     24 C          60.9772   81.7988   14.0473 C.ar    1  UNL1        0.1124
     25 C          65.2451   92.8687   12.5799 C.3     1  UNL1        0.0721
     26 C          66.0307   93.6252   11.5502 C.ar    1  UNL1       -0.0162
     27 C          65.9557   95.1225   11.5006 C.ar    1  UNL1       -0.0039
     28 C          66.7413   95.8791   10.4708 C.ar    1  UNL1       -0.0003
     29 C          67.6018   95.1384    9.4907 C.ar    1  UNL1       -0.0000
     30 C          67.6768   93.6411    9.5402 C.ar    1  UNL1       -0.0003
     31 C          66.8912   92.8845   10.5699 C.ar    1  UNL1       -0.0039
@<TRIPOS>BOND
     1     1     2    2
     2     2     3   am
     3     3     4    1
     4     4     5   ar
     5     5     6   ar
     6     6    19    1
     7    19    20   ar
     8    20    21   ar
     9    21    22   ar
    10    22    23    1
    11    22    24   ar
    12     6     7   ar
    13     7     8   ar
    14     8     9   ar
    15     9    10    1
    16    10    11    1
    17    11    12   ar
    18    12    13   ar
    19    13    25    1
    20    25    26    1
    21    26    27   ar
    22    27    28   ar
    23    28    29   ar
    24    29    30   ar
    25    30    31   ar
    26    13    14   ar
    27    14    15   ar
    28    15    16   ar
    29    16     2    1
    30     9     4   ar
    31    16    11   ar
    32    24    19   ar
    33    31    26   ar
    34     3    17    1
    35    10    18    1
@<TRIPOS>MOLECULE
*****
 31 35 0 0 0
SMALL
GASTEIGER

@<TRIPOS>ATOM
      1 O          63.7771   92.3760    2.1741 O.2     1  UNL1       -0.2697
      2 C          62.3342   92.3637    2.5834 C.2     1  UNL1        0.2522
      3 N          61.9984   91.4947    3.7589 N.am    1  UNL1       -0.2793
      4 C          60.6633   91.2693    4.4045 C.ar    1  UNL1        0.0656
      5 C          60.7670   90.3195    5.5608 C.ar    1  UNL1        0.0335
      6 C          59.5415   89.9578    6.3464 C.ar    1  UNL1        0.0669
      7 C          58.2123   90.5459    5.9758 C.ar    1  UNL1        0.0189
      8 C          58.1086   91.4957    4.8195 C.ar    1  UNL1        0.0174
      9 C          59.3341   91.8574    4.0338 C.ar    1  UNL1        0.0631
     10 N          59.0118   92.8161    2.9261 N.pl3   1  UNL1       -0.2969
     11 C          59.9390   93.4235    1.9155 C.ar    1  UNL1        0.1361
     12 N          59.2057   94.3360    0.9776 N.ar    1  UNL1       -0.2344
     13 C          59.9509   95.0472   -0.1127 C.ar    1  UNL1        0.0648
     14 C          61.4294   94.8458   -0.2653 C.ar    1  UNL1        0.0153
     15 C          62.1628   93.9333    0.6726 C.ar    1  UNL1        0.0086
     16 C          61.4176   93.2222    1.7630 C.ar    1  UNL1        0.0853
     17 H          62.7543   91.0077    4.1598 H       1  UNL1        0.1552
     18 H          58.0667   93.0819    2.8527 H       1  UNL1        0.1536
     19 N          59.6452   89.0079    7.5028 N.ar    1  UNL1       -0.2857
     20 C          59.2865   87.5516    7.4824 C.ar    1  UNL1        0.1836
     21 N          59.5454   86.9913    8.8495 N.ar    1  UNL1       -0.2120
     22 C          60.0640   88.1014    9.7149 C.ar    1  UNL1        0.1575
     23 CL         60.4527   87.9854   11.1590 Cl      1  UNL1       -0.0597
     24 C          60.1256   89.3477    8.8825 C.ar    1  UNL1        0.1124
     25 C          59.2174   95.9596   -1.0505 C.3     1  UNL1        0.0721
     26 C          57.7591   95.7396   -1.3238 C.ar    1  UNL1       -0.0162
     27 C          56.7797   96.8559   -1.1126 C.ar    1  UNL1       -0.0039
     28 C          55.3213   96.6358   -1.3859 C.ar    1  UNL1       -0.0003
     29 C          54.8424   95.2994   -1.8703 C.ar    1  UNL1       -0.0000
     30 C          55.8218   94.1831   -2.0814 C.ar    1  UNL1       -0.0003
     31 C          57.2801   94.4032   -1.8082 C.ar    1  UNL1       -0.0039
@<TRIPOS>BOND
     1     1     2    2
     2     2     3   am
     3     3     4    1
     4     4     5   ar
     5     5     6   ar
     6     6    19    1
     7    19    20   ar
     8    20    21   ar
     9    21    22   ar
    10    22    23    1
    11    22    24   ar
    12     6     7   ar
    13     7     8   ar
    14     8     9   ar
    15     9    10    1
    16    10    11    1
    17    11    12   ar
    18    12    13   ar
    19    13    25    1
    20    25    26    1
    21    26    27   ar
    22    27    28   ar
    23    28    29   ar
    24    29    30   ar
    25    30    31   ar
    26    13    14   ar
    27    14    15   ar
    28    15    16   ar
    29    16     2    1
    30     9     4   ar
    31    16    11   ar
    32    24    19   ar
    33    31    26   ar
    34     3    17    1
    35    10    18    1
