@<TRIPOS>MOLECULE
*****
 48 50 0 0 0
SMALL
GASTEIGER

@<TRIPOS>ATOM
      1 C          64.1900   86.3582   15.1575 C.3     1  UNL1        0.0717
      2 N          64.2942   87.7651   14.6480 N.am    1  UNL1       -0.3046
      3 C          63.6431   88.1431   13.3505 C.2     1  UNL1        0.2403
      4 O          62.8878   87.1141   12.5627 O.2     1  UNL1       -0.2733
      5 H          64.7899   88.4405   15.1651 H       1  UNL1        0.1494
      6 C          63.7472   89.5500   12.8410 C.3     1  UNL1        0.1496
      7 N          64.8601   90.4382   13.3131 N.am    1  UNL1       -0.2824
      8 C          64.7513   91.1384   14.6352 C.2     1  UNL1        0.3046
      9 O          63.5297   90.9503   15.4852 O.2     1  UNL1       -0.2526
     10 N          65.8640   92.0265   15.1073 N.am    1  UNL1       -0.2567
     11 C          65.7553   92.7267   16.4294 C.3     1  UNL1        0.1168
     12 H          65.6618   90.5616   12.7552 H       1  UNL1        0.1514
     13 C          67.0856   92.2145   14.2573 C.3     1  UNL1        0.1413
     14 C          66.9788   92.9151   12.9352 C.ar    1  UNL1        0.0858
     15 C          66.1259   94.1127   12.6384 C.ar    1  UNL1        0.0530
     16 S          66.3262   94.4788   11.1976 S.2     1  UNL1       -0.0705
     17 C          67.3029   93.5074   10.6040 C.ar    1  UNL1        0.0875
     18 N          67.7063   92.5410   11.6779 N.ar    1  UNL1       -0.2453
     19 C          67.7907   93.5031    9.1855 C.3     1  UNL1        0.0465
     20 C          68.6625   92.3852    8.6955 C.3     1  UNL1        0.0069
     21 C          67.4067   94.6169    8.2570 C.3     1  UNL1        0.0069
     22 C          62.7386   90.0688   11.8594 C.3     1  UNL1        0.0270
     23 C          63.1941   90.6681   10.5620 C.3     1  UNL1        0.0022
     24 C          61.2745   89.9883   12.1753 C.3     1  UNL1        0.0022
     25 C          65.1562   85.3145   14.6810 C.3     1  UNL1        0.0213
     26 C          64.9419   84.6426   13.3571 C.3     1  UNL1        0.0217
     27 C          63.5602   84.2368   12.9370 C.3     1  UNL1        0.0792
     28 N          63.0827   84.5307   11.5457 N.am    1  UNL1       -0.2720
     29 C          63.7290   83.8552   10.3726 C.2     1  UNL1        0.4019
     30 O          64.8527   82.8858   10.5908 O.2     1  UNL1       -0.2264
     31 H          62.3452   85.1669   11.4025 H       1  UNL1        0.1527
     32 O          63.2515   84.1490    8.9813 O.3     1  UNL1       -0.4291
     33 C          63.0625   85.5694    8.5376 C.3     1  UNL1        0.2447
     34 C          61.7005   86.1958    8.5877 C.ar    1  UNL1        0.0714
     35 C          61.2671   87.2904    9.5173 C.ar    1  UNL1        0.1053
     36 N          59.8316   87.6088    9.2211 N.ar    1  UNL1       -0.2350
     37 C          59.3777   86.7110    8.1084 C.ar    1  UNL1        0.1343
     38 S          60.5328   85.8378    7.7170 S.2     1  UNL1       -0.0652
     39 C          62.6561   83.5372   13.9081 C.3     1  UNL1        0.0460
     40 C          62.3132   82.0910   13.7055 C.ar    1  UNL1       -0.0205
     41 C          63.2070   81.2174   12.8761 C.ar    1  UNL1       -0.0042
     42 C          62.8641   79.7713   12.6735 C.ar    1  UNL1       -0.0003
     43 C          61.6274   79.1987   13.3003 C.ar    1  UNL1       -0.0000
     44 C          60.7337   80.0723   14.1297 C.ar    1  UNL1       -0.0003
     45 C          61.0766   81.5185   14.3323 C.ar    1  UNL1       -0.0042
     46 C          63.1196   85.9949   16.1436 C.3     1  UNL1        0.0196
     47 C          62.7089   86.7365   18.5994 C.3     1  UNL1        0.0001
     48 C          62.6290   87.0151   17.1277 C.3     1  UNL1        0.0017
@<TRIPOS>BOND
     1    47    48    1
     2    48    46    1
     3     1    46    1
     4     1    25    1
     5    25    26    1
     6    27    26    1
     7    27    39    1
     8    39    40    1
     9    40    41   ar
    10    41    42   ar
    11    42    43   ar
    12    43    44   ar
    13    44    45   ar
    14    27    28    1
    15    28    29   am
    16    29    30    2
    17    29    32    1
    18    32    33    1
    19    33    34    1
    20    34    35   ar
    21    35    36   ar
    22    36    37   ar
    23    37    38   ar
    24     1     2    1
    25     2     3   am
    26     3     4    2
    27     3     6    1
    28     6     7    1
    29     7     8   am
    30     8     9    2
    31     8    10   am
    32    10    11    1
    33    10    13    1
    34    13    14    1
    35    14    15   ar
    36    15    16   ar
    37    16    17   ar
    38    17    19    1
    39    19    20    1
    40    19    21    1
    41    17    18   ar
    42     6    22    1
    43    22    23    1
    44    22    24    1
    45    45    40   ar
    46    38    34   ar
    47    18    14   ar
    48    28    31    1
    49     2     5    1
    50     7    12    1
@<TRIPOS>MOLECULE
*****
 48 50 0 0 0
SMALL
GASTEIGER

@<TRIPOS>ATOM
      1 C          62.3031   89.7678   10.9426 C.3     1  UNL1        0.0717
      2 N          62.0631   88.3198   10.6332 N.am    1  UNL1       -0.3046
      3 C          61.2129   87.9347    9.4589 C.2     1  UNL1        0.2403
      4 O          60.6027   88.9976    8.5941 O.2     1  UNL1       -0.2733
      5 H          62.4635   87.6222   11.2008 H       1  UNL1        0.1494
      6 C          60.9729   86.4867    9.1494 C.3     1  UNL1        0.1496
      7 N          61.4960   85.4259   10.0721 N.am    1  UNL1       -0.2824
      8 C          62.7899   84.7334    9.7616 C.2     1  UNL1        0.3046
      9 O          63.5606   85.1018    8.5285 O.2     1  UNL1       -0.2526
     10 N          63.3130   83.6727   10.6841 N.am    1  UNL1       -0.2567
     11 C          64.6069   82.9802   10.3737 C.3     1  UNL1        0.1168
     12 H          60.9901   85.1842   10.8813 H       1  UNL1        0.1514
     13 C          62.5423   83.3044   11.9171 C.3     1  UNL1        0.1413
     14 C          63.0075   83.7788   13.2620 C.ar    1  UNL1        0.0858
     15 C          63.8073   82.9821   14.2497 C.ar    1  UNL1        0.0530
     16 S          64.0486   83.8440   15.4534 S.2     1  UNL1       -0.0705
     17 C          63.3979   85.1734   15.2096 C.ar    1  UNL1        0.0875
     18 N          62.7545   85.1331   13.8552 N.ar    1  UNL1       -0.2453
     19 C          63.3918   86.3385   16.1543 C.3     1  UNL1        0.0465
     20 C          62.8106   86.1866   17.5287 C.3     1  UNL1        0.0069
     21 C          63.9669   87.6556   15.7245 C.3     1  UNL1        0.0069
     22 C          60.2098   86.0995    7.9175 C.3     1  UNL1        0.0270
     23 C          58.8246   86.6305    7.6954 C.3     1  UNL1        0.0022
     24 C          60.8319   85.1813    6.9076 C.3     1  UNL1        0.0022
     25 C          63.4996   90.4686   10.3707 C.3     1  UNL1        0.0213
     26 C          63.7335   91.9195   10.6711 C.3     1  UNL1        0.0217
     27 C          64.9345   92.3364   11.4673 C.3     1  UNL1        0.0792
     28 N          64.8226   92.5234   12.9513 N.am    1  UNL1       -0.2720
     29 C          64.6662   91.3310   13.8479 C.2     1  UNL1        0.4019
     30 O          64.6218   89.9516   13.2604 O.2     1  UNL1       -0.2264
     31 H          64.8517   93.4288   13.3369 H       1  UNL1        0.1527
     32 O          64.5542   91.5181   15.3319 O.3     1  UNL1       -0.4291
     33 C          65.5209   92.4122   16.0502 C.3     1  UNL1        0.2447
     34 C          66.9384   92.5221   15.5721 C.ar    1  UNL1        0.0714
     35 C          67.6056   91.6197   14.5769 C.ar    1  UNL1        0.1053
     36 N          69.0171   92.0935   14.3949 N.ar    1  UNL1       -0.2350
     37 C          69.2222   93.2889   15.2775 C.ar    1  UNL1        0.1343
     38 S          67.9375   93.5537   16.0050 S.2     1  UNL1       -0.0652
     39 C          66.2475   92.5662   10.7793 C.3     1  UNL1        0.0460
     40 C          66.6040   93.9358   10.2820 C.ar    1  UNL1       -0.0205
     41 C          66.2206   95.1467   11.0798 C.ar    1  UNL1       -0.0042
     42 C          66.5772   96.5162   10.5825 C.ar    1  UNL1       -0.0003
     43 C          67.3171   96.6747    9.2873 C.ar    1  UNL1       -0.0000
     44 C          67.7005   95.4638    8.4895 C.ar    1  UNL1       -0.0003
     45 C          67.3440   94.0943    8.9869 C.ar    1  UNL1       -0.0042
     46 C          61.3465   90.5149   11.8240 C.3     1  UNL1        0.0196
     47 C          59.0515   89.3967   12.3060 C.3     1  UNL1        0.0001
     48 C          59.8699   90.4210   11.5774 C.3     1  UNL1        0.0017
@<TRIPOS>BOND
     1    47    48    1
     2    48    46    1
     3     1    46    1
     4     1    25    1
     5    25    26    1
     6    27    26    1
     7    27    39    1
     8    39    40    1
     9    40    41   ar
    10    41    42   ar
    11    42    43   ar
    12    43    44   ar
    13    44    45   ar
    14    27    28    1
    15    28    29   am
    16    29    30    2
    17    29    32    1
    18    32    33    1
    19    33    34    1
    20    34    35   ar
    21    35    36   ar
    22    36    37   ar
    23    37    38   ar
    24     1     2    1
    25     2     3   am
    26     3     4    2
    27     3     6    1
    28     6     7    1
    29     7     8   am
    30     8     9    2
    31     8    10   am
    32    10    11    1
    33    10    13    1
    34    13    14    1
    35    14    15   ar
    36    15    16   ar
    37    16    17   ar
    38    17    19    1
    39    19    20    1
    40    19    21    1
    41    17    18   ar
    42     6    22    1
    43    22    23    1
    44    22    24    1
    45    45    40   ar
    46    38    34   ar
    47    18    14   ar
    48    28    31    1
    49     2     5    1
    50     7    12    1
@<TRIPOS>MOLECULE
*****
 48 50 0 0 0
SMALL
GASTEIGER

@<TRIPOS>ATOM
      1 C          62.5674   89.5394   11.2997 C.3     1  UNL1        0.0717
      2 N          62.1806   89.1135    9.9144 N.am    1  UNL1       -0.3046
      3 C          60.7337   89.0628    9.5219 C.2     1  UNL1        0.2403
      4 O          59.6737   89.4379   10.5146 O.2     1  UNL1       -0.2733
      5 H          62.8763   88.8673    9.2629 H       1  UNL1        0.1494
      6 C          60.3469   88.6369    8.1366 C.3     1  UNL1        0.1496
      7 N          60.3404   89.6372    7.0188 N.am    1  UNL1       -0.2824
      8 C          59.0432   90.0488    6.3882 C.2     1  UNL1        0.3046
      9 O          57.7524   89.4601    6.8754 O.2     1  UNL1       -0.2526
     10 N          59.0366   91.0490    5.2705 N.am    1  UNL1       -0.2567
     11 C          57.7393   91.4606    4.6399 C.3     1  UNL1        0.1168
     12 H          61.1876   90.0236    6.6991 H       1  UNL1        0.1514
     13 C          60.3274   91.6377    4.7833 C.3     1  UNL1        0.1413
     14 C          60.3992   92.2655    3.4228 C.ar    1  UNL1        0.0858
     15 C          61.6458   92.4863    2.6184 C.ar    1  UNL1        0.0530
     16 S          61.2540   93.1400    1.3264 S.2     1  UNL1       -0.0705
     17 C          59.7652   93.3233    1.3324 C.ar    1  UNL1        0.0875
     18 N          59.2369   92.7828    2.6281 N.ar    1  UNL1       -0.2453
     19 C          58.9482   93.9389    0.2353 C.3     1  UNL1        0.0465
     20 C          58.0554   93.0780   -0.6083 C.3     1  UNL1        0.0069
     21 C          59.0241   95.4154   -0.0181 C.3     1  UNL1        0.0069
     22 C          59.9667   87.2108    7.8691 C.3     1  UNL1        0.0270
     23 C          61.0322   86.1652    7.7231 C.3     1  UNL1        0.0022
     24 C          58.5209   86.8303    7.7475 C.3     1  UNL1        0.0022
     25 C          62.3876   88.5961   12.4520 C.3     1  UNL1        0.0213
     26 C          63.5432   87.7681   12.9307 C.3     1  UNL1        0.0217
     27 C          64.2290   88.1118   14.2198 C.3     1  UNL1        0.0792
     28 N          64.4927   89.5464   14.5697 N.am    1  UNL1       -0.2720
     29 C          63.5191   90.3007   15.4261 C.2     1  UNL1        0.4019
     30 O          62.2818   89.6204   15.9324 O.2     1  UNL1       -0.2264
     31 H          65.3048   89.9929   14.2374 H       1  UNL1        0.1527
     32 O          63.7828   91.7352   15.7760 O.3     1  UNL1       -0.4291
     33 C          65.0640   92.1182   16.4555 C.3     1  UNL1        0.2447
     34 C          66.2790   92.4420   15.6377 C.ar    1  UNL1        0.0714
     35 C          66.2901   92.8167   14.1853 C.ar    1  UNL1        0.1053
     36 N          67.7142   93.0542   13.7786 N.ar    1  UNL1       -0.2350
     37 C          68.5834   92.8263   14.9797 C.ar    1  UNL1        0.1343
     38 S          67.6964   92.4479   16.1286 S.2     1  UNL1       -0.0652
     39 C          64.6511   87.0210   15.1588 C.3     1  UNL1        0.0460
     40 C          64.1709   85.6166   14.9412 C.ar    1  UNL1       -0.0205
     41 C          62.9842   85.1034   15.7018 C.ar    1  UNL1       -0.0042
     42 C          62.5042   83.6991   15.4842 C.ar    1  UNL1       -0.0003
     43 C          63.2107   82.8080   14.5061 C.ar    1  UNL1       -0.0000
     44 C          64.3974   83.3212   13.7456 C.ar    1  UNL1       -0.0003
     45 C          64.8775   84.7255   13.9631 C.ar    1  UNL1       -0.0042
     46 C          63.1339   90.9087   11.5327 C.3     1  UNL1        0.0196
     47 C          64.9947   92.5255   10.7124 C.3     1  UNL1        0.0001
     48 C          63.8250   91.6342   10.4166 C.3     1  UNL1        0.0017
@<TRIPOS>BOND
     1    47    48    1
     2    48    46    1
     3     1    46    1
     4     1    25    1
     5    25    26    1
     6    27    26    1
     7    27    39    1
     8    39    40    1
     9    40    41   ar
    10    41    42   ar
    11    42    43   ar
    12    43    44   ar
    13    44    45   ar
    14    27    28    1
    15    28    29   am
    16    29    30    2
    17    29    32    1
    18    32    33    1
    19    33    34    1
    20    34    35   ar
    21    35    36   ar
    22    36    37   ar
    23    37    38   ar
    24     1     2    1
    25     2     3   am
    26     3     4    2
    27     3     6    1
    28     6     7    1
    29     7     8   am
    30     8     9    2
    31     8    10   am
    32    10    11    1
    33    10    13    1
    34    13    14    1
    35    14    15   ar
    36    15    16   ar
    37    16    17   ar
    38    17    19    1
    39    19    20    1
    40    19    21    1
    41    17    18   ar
    42     6    22    1
    43    22    23    1
    44    22    24    1
    45    45    40   ar
    46    38    34   ar
    47    18    14   ar
    48    28    31    1
    49     2     5    1
    50     7    12    1
@<TRIPOS>MOLECULE
*****
 48 50 0 0 0
SMALL
GASTEIGER

@<TRIPOS>ATOM
      1 C          63.5157   85.6397   14.1255 C.3     1  UNL1        0.0717
      2 N          63.3692   87.1325   14.1204 N.am    1  UNL1       -0.3046
      3 C          64.4653   87.9955   14.6717 C.2     1  UNL1        0.2403
      4 O          65.7078   87.3657   15.2281 O.2     1  UNL1       -0.2733
      5 H          62.5537   87.5459   13.7553 H       1  UNL1        0.1494
      6 C          64.3189   89.4883   14.6667 C.3     1  UNL1        0.1496
      7 N          64.6558   90.2709   13.4321 N.am    1  UNL1       -0.2824
      8 C          63.6187   90.4763   12.3681 C.2     1  UNL1        0.3046
      9 O          62.2446   89.8993   12.5386 O.2     1  UNL1       -0.2526
     10 N          63.9556   91.2588   11.1335 N.am    1  UNL1       -0.2567
     11 C          62.9185   91.4643   10.0695 C.3     1  UNL1        0.1168
     12 H          65.5577   90.6495   13.3202 H       1  UNL1        0.1514
     13 C          65.3297   91.8358   10.9630 C.3     1  UNL1        0.1413
     14 C          65.9530   92.6292   12.0729 C.ar    1  UNL1        0.0858
     15 C          65.8818   94.1181   12.2402 C.ar    1  UNL1        0.0530
     16 S          66.6418   94.4821   13.4811 S.2     1  UNL1       -0.0705
     17 C          67.1828   93.2181   14.0808 C.ar    1  UNL1        0.0875
     18 N          66.7571   92.0729   13.2105 N.ar    1  UNL1       -0.2453
     19 C          68.0051   93.1170   15.3312 C.3     1  UNL1        0.0465
     20 C          68.0096   91.8443   16.1250 C.3     1  UNL1        0.0069
     21 C          68.8230   94.2886   15.7878 C.3     1  UNL1        0.0069
     22 C          63.8354   90.1987   15.8962 C.3     1  UNL1        0.0270
     23 C          62.9576   89.4829   16.8796 C.3     1  UNL1        0.0022
     24 C          64.2299   91.6248   16.1423 C.3     1  UNL1        0.0022
     25 C          63.3718   84.8677   12.8475 C.3     1  UNL1        0.0213
     26 C          62.4993   85.3947   11.7471 C.3     1  UNL1        0.0217
     27 C          62.4959   84.7232   10.4058 C.3     1  UNL1        0.0792
     28 N          62.3597   83.2322   10.3138 N.am    1  UNL1       -0.2720
     29 C          63.5852   82.3683   10.2706 C.2     1  UNL1        0.4019
     30 O          64.9469   82.9954   10.3193 O.2     1  UNL1       -0.2264
     31 H          61.4659   82.8206   10.2819 H       1  UNL1        0.1527
     32 O          63.4490   80.8773   10.1786 O.3     1  UNL1       -0.4291
     33 C          63.0337   80.0864   11.3836 C.3     1  UNL1        0.2447
     34 C          62.8684   80.7697   12.7087 C.ar    1  UNL1        0.0714
     35 C          63.9761   81.1862   13.6303 C.ar    1  UNL1        0.1053
     36 N          63.3586   81.8303   14.8360 N.ar    1  UNL1       -0.2350
     37 C          61.8691   81.8118   14.6597 C.ar    1  UNL1        0.1343
     38 S          61.5662   81.1563   13.3449 S.2     1  UNL1       -0.0652
     39 C          62.6288   85.5426    9.1565 C.3     1  UNL1        0.0460
     40 C          61.5351   86.4901    8.7611 C.ar    1  UNL1       -0.0205
     41 C          60.4480   86.0354    7.8331 C.ar    1  UNL1       -0.0042
     42 C          59.3544   86.9829    7.4378 C.ar    1  UNL1       -0.0003
     43 C          59.3480   88.3851    7.9705 C.ar    1  UNL1       -0.0000
     44 C          60.4352   88.8398    8.8985 C.ar    1  UNL1       -0.0003
     45 C          61.5287   87.8923    9.2938 C.ar    1  UNL1       -0.0042
     46 C          63.8061   84.9189   15.4086 C.3     1  UNL1        0.0196
     47 C          62.7426   86.0780   17.4762 C.3     1  UNL1        0.0001
     48 C          62.7962   84.9256   16.5176 C.3     1  UNL1        0.0017
@<TRIPOS>BOND
     1    47    48    1
     2    48    46    1
     3     1    46    1
     4     1    25    1
     5    25    26    1
     6    27    26    1
     7    27    39    1
     8    39    40    1
     9    40    41   ar
    10    41    42   ar
    11    42    43   ar
    12    43    44   ar
    13    44    45   ar
    14    27    28    1
    15    28    29   am
    16    29    30    2
    17    29    32    1
    18    32    33    1
    19    33    34    1
    20    34    35   ar
    21    35    36   ar
    22    36    37   ar
    23    37    38   ar
    24     1     2    1
    25     2     3   am
    26     3     4    2
    27     3     6    1
    28     6     7    1
    29     7     8   am
    30     8     9    2
    31     8    10   am
    32    10    11    1
    33    10    13    1
    34    13    14    1
    35    14    15   ar
    36    15    16   ar
    37    16    17   ar
    38    17    19    1
    39    19    20    1
    40    19    21    1
    41    17    18   ar
    42     6    22    1
    43    22    23    1
    44    22    24    1
    45    45    40   ar
    46    38    34   ar
    47    18    14   ar
    48    28    31    1
    49     2     5    1
    50     7    12    1
@<TRIPOS>MOLECULE
*****
 48 50 0 0 0
SMALL
GASTEIGER

@<TRIPOS>ATOM
      1 C          63.7713   86.4170   14.8152 C.3     1  UNL1        0.0717
      2 N          63.9489   87.8444   14.3898 N.am    1  UNL1       -0.3046
      3 C          63.4309   88.3000   13.0578 C.2     1  UNL1        0.2403
      4 O          62.7354   87.3283   12.1513 O.2     1  UNL1       -0.2733
      5 H          64.4054   88.4822   14.9848 H       1  UNL1        0.1494
      6 C          63.6085   89.7274   12.6325 C.3     1  UNL1        0.1496
      7 N          64.7580   90.5311   13.1644 N.am    1  UNL1       -0.2824
      8 C          64.6716   91.1528   14.5268 C.2     1  UNL1        0.3046
      9 O          63.4357   90.9709   15.3572 O.2     1  UNL1       -0.2526
     10 N          65.8210   91.9564   15.0587 N.am    1  UNL1       -0.2567
     11 C          65.7346   92.5781   16.4211 C.3     1  UNL1        0.1168
     12 H          65.5691   90.6504   12.6194 H       1  UNL1        0.1514
     13 C          67.0568   92.1383   14.2283 C.3     1  UNL1        0.1413
     14 C          66.9745   92.8386   12.9043 C.ar    1  UNL1        0.0858
     15 C          66.1071   94.0197   12.5841 C.ar    1  UNL1        0.0530
     16 S          66.3416   94.3918   11.1500 S.2     1  UNL1       -0.0705
     17 C          67.3540   93.4405   10.5839 C.ar    1  UNL1        0.0875
     18 N          67.7450   92.4806   11.6682 N.ar    1  UNL1       -0.2453
     19 C          67.8824   93.4479    9.1801 C.3     1  UNL1        0.0465
     20 C          68.7175   92.3036    8.6871 C.3     1  UNL1        0.0069
     21 C          67.5756   94.5997    8.2693 C.3     1  UNL1        0.0069
     22 C          62.6367   90.3512   11.6752 C.3     1  UNL1        0.0270
     23 C          61.1618   90.1669   11.8772 C.3     1  UNL1        0.0022
     24 C          63.1397   91.1593   10.5159 C.3     1  UNL1        0.0022
     25 C          63.1542   85.4252   13.8742 C.3     1  UNL1        0.0213
     26 C          64.0284   84.5852   12.9909 C.3     1  UNL1        0.0217
     27 C          63.4746   84.0002   11.7255 C.3     1  UNL1        0.0792
     28 N          62.2242   84.5673   11.1215 N.am    1  UNL1       -0.2720
     29 C          62.2277   85.0443    9.6994 C.2     1  UNL1        0.4019
     30 O          63.4816   84.9542    8.8812 O.2     1  UNL1       -0.2264
     31 H          61.4011   84.6264   11.6585 H       1  UNL1        0.1527
     32 O          60.9772   85.6114    9.0954 O.3     1  UNL1       -0.4291
     33 C          60.4507   86.9349    9.5655 C.3     1  UNL1        0.2447
     34 C          59.9793   87.9515    8.5683 C.ar    1  UNL1        0.0714
     35 C          60.3223   89.4118    8.5685 C.ar    1  UNL1        0.1053
     36 N          59.6371   90.0491    7.3962 N.ar    1  UNL1       -0.2350
     37 C          58.8705   88.9827    6.6715 C.ar    1  UNL1        0.1343
     38 S          59.0821   87.6863    7.3959 S.2     1  UNL1       -0.0652
     39 C          64.1713   82.8483   11.0640 C.3     1  UNL1        0.0460
     40 C          63.5751   81.4734   11.1296 C.ar    1  UNL1       -0.0205
     41 C          63.1265   80.9125   12.4465 C.ar    1  UNL1       -0.0042
     42 C          62.5303   79.5376   12.5120 C.ar    1  UNL1       -0.0003
     43 C          62.3827   78.7237   11.2607 C.ar    1  UNL1       -0.0000
     44 C          62.8313   79.2846    9.9439 C.ar    1  UNL1       -0.0003
     45 C          63.4275   80.6594    9.8784 C.ar    1  UNL1       -0.0042
     46 C          64.2108   85.9814   16.1817 C.3     1  UNL1        0.0196
     47 C          62.6508   87.0669   17.9531 C.3     1  UNL1        0.0001
     48 C          63.2038   85.8432   17.2848 C.3     1  UNL1        0.0017
@<TRIPOS>BOND
     1    47    48    1
     2    48    46    1
     3     1    46    1
     4     1    25    1
     5    25    26    1
     6    27    26    1
     7    27    39    1
     8    39    40    1
     9    40    41   ar
    10    41    42   ar
    11    42    43   ar
    12    43    44   ar
    13    44    45   ar
    14    27    28    1
    15    28    29   am
    16    29    30    2
    17    29    32    1
    18    32    33    1
    19    33    34    1
    20    34    35   ar
    21    35    36   ar
    22    36    37   ar
    23    37    38   ar
    24     1     2    1
    25     2     3   am
    26     3     4    2
    27     3     6    1
    28     6     7    1
    29     7     8   am
    30     8     9    2
    31     8    10   am
    32    10    11    1
    33    10    13    1
    34    13    14    1
    35    14    15   ar
    36    15    16   ar
    37    16    17   ar
    38    17    19    1
    39    19    20    1
    40    19    21    1
    41    17    18   ar
    42     6    22    1
    43    22    23    1
    44    22    24    1
    45    45    40   ar
    46    38    34   ar
    47    18    14   ar
    48    28    31    1
    49     2     5    1
    50     7    12    1
@<TRIPOS>MOLECULE
*****
 48 50 0 0 0
SMALL
GASTEIGER

@<TRIPOS>ATOM
      1 C          62.5319   88.3697   11.1680 C.3     1  UNL1        0.0717
      2 N          62.0485   88.0927    9.7754 N.am    1  UNL1       -0.3046
      3 C          60.7148   88.6129    9.3271 C.2     1  UNL1        0.2403
      4 O          59.8648   89.4101   10.2714 O.2     1  UNL1       -0.2733
      5 H          62.6064   87.5695    9.1556 H       1  UNL1        0.1494
      6 C          60.2314   88.3358    7.9344 C.3     1  UNL1        0.1496
      7 N          60.2639   89.4211    6.8994 N.am    1  UNL1       -0.2824
      8 C          58.9824   89.9498    6.3265 C.2     1  UNL1        0.3046
      9 O          57.6683   89.3933    6.7887 O.2     1  UNL1       -0.2526
     10 N          59.0149   91.0351    5.2916 N.am    1  UNL1       -0.2567
     11 C          57.7334   91.5638    4.7187 C.3     1  UNL1        0.1168
     12 H          61.1264   89.7864    6.5961 H       1  UNL1        0.1514
     13 C          60.3289   91.5916    4.8295 C.3     1  UNL1        0.1413
     14 C          60.4370   92.2371    3.4798 C.ar    1  UNL1        0.0858
     15 C          61.6863   92.3602    2.6588 C.ar    1  UNL1        0.0530
     16 S          61.3362   93.0720    1.3858 S.2     1  UNL1       -0.0705
     17 C          59.8704   93.3890    1.4199 C.ar    1  UNL1        0.0875
     18 N          59.3147   92.8730    2.7141 N.ar    1  UNL1       -0.2453
     19 C          59.0963   94.0975    0.3481 C.3     1  UNL1        0.0465
     20 C          59.2112   95.5857    0.1993 C.3     1  UNL1        0.0069
     21 C          58.2073   93.3178   -0.5748 C.3     1  UNL1        0.0069
     22 C          59.7154   86.9736    7.5767 C.3     1  UNL1        0.0270
     23 C          58.2685   86.6400    7.7892 C.3     1  UNL1        0.0022
     24 C          60.6463   85.9449    7.0065 C.3     1  UNL1        0.0022
     25 C          62.8011   89.7802   11.6018 C.3     1  UNL1        0.0213
     26 C          62.7693   90.1357   13.0587 C.3     1  UNL1        0.0217
     27 C          64.0207   90.5961   13.7458 C.3     1  UNL1        0.0792
     28 N          65.0182   91.4357   13.0041 N.am    1  UNL1       -0.2720
     29 C          65.7471   92.5374   13.7147 C.2     1  UNL1        0.4019
     30 O          65.4786   92.7996   15.1669 O.2     1  UNL1       -0.2264
     31 H          65.1944   91.2636   12.0509 H       1  UNL1        0.1527
     32 O          66.7446   93.3770   12.9729 O.3     1  UNL1       -0.4291
     33 C          66.2732   94.4575   12.0454 C.3     1  UNL1        0.2447
     34 C          66.7974   94.5221   10.6414 C.ar    1  UNL1        0.0714
     35 C          67.2851   93.3600    9.8280 C.ar    1  UNL1        0.1053
     36 N          67.7150   93.8799    8.4882 N.ar    1  UNL1       -0.2350
     37 C          67.4930   95.3633    8.4737 C.ar    1  UNL1        0.1343
     38 S          66.9259   95.7602    9.8044 S.2     1  UNL1       -0.0652
     39 C          64.2747   90.2169   15.1747 C.3     1  UNL1        0.0460
     40 C          63.9633   88.8282   15.6488 C.ar    1  UNL1       -0.0205
     41 C          64.4930   87.6428   14.8977 C.ar    1  UNL1       -0.0042
     42 C          64.1816   86.2542   15.3719 C.ar    1  UNL1       -0.0003
     43 C          63.3404   86.0511   16.5972 C.ar    1  UNL1       -0.0000
     44 C          62.8107   87.2365   17.3483 C.ar    1  UNL1       -0.0003
     45 C          63.1222   88.6250   16.8741 C.ar    1  UNL1       -0.0042
     46 C          62.7462   87.2363   12.1270 C.3     1  UNL1        0.0196
     47 C          63.0810   84.6636   12.2647 C.3     1  UNL1        0.0001
     48 C          62.3145   85.8484   11.7562 C.3     1  UNL1        0.0017
@<TRIPOS>BOND
     1    47    48    1
     2    48    46    1
     3     1    46    1
     4     1    25    1
     5    25    26    1
     6    27    26    1
     7    27    39    1
     8    39    40    1
     9    40    41   ar
    10    41    42   ar
    11    42    43   ar
    12    43    44   ar
    13    44    45   ar
    14    27    28    1
    15    28    29   am
    16    29    30    2
    17    29    32    1
    18    32    33    1
    19    33    34    1
    20    34    35   ar
    21    35    36   ar
    22    36    37   ar
    23    37    38   ar
    24     1     2    1
    25     2     3   am
    26     3     4    2
    27     3     6    1
    28     6     7    1
    29     7     8   am
    30     8     9    2
    31     8    10   am
    32    10    11    1
    33    10    13    1
    34    13    14    1
    35    14    15   ar
    36    15    16   ar
    37    16    17   ar
    38    17    19    1
    39    19    20    1
    40    19    21    1
    41    17    18   ar
    42     6    22    1
    43    22    23    1
    44    22    24    1
    45    45    40   ar
    46    38    34   ar
    47    18    14   ar
    48    28    31    1
    49     2     5    1
    50     7    12    1
@<TRIPOS>MOLECULE
*****
 48 50 0 0 0
SMALL
GASTEIGER

@<TRIPOS>ATOM
      1 C          61.7455   90.0094   11.2631 C.3     1  UNL1        0.0717
      2 N          61.3057   89.7432    9.8539 N.am    1  UNL1       -0.3046
      3 C          60.7855   88.3885    9.4739 C.2     1  UNL1        0.2403
      4 O          60.7050   87.3002   10.5030 O.2     1  UNL1       -0.2733
      5 H          61.3585   90.4575    9.1785 H       1  UNL1        0.1494
      6 C          60.3457   88.1223    8.0647 C.3     1  UNL1        0.1496
      7 N          60.3803   89.2241    7.0474 N.am    1  UNL1       -0.2824
      8 C          59.1005   89.7527    6.4706 C.2     1  UNL1        0.3046
      9 O          57.7861   89.1795    6.9110 O.2     1  UNL1       -0.2526
     10 N          59.1350   90.8545    5.4533 N.am    1  UNL1       -0.2567
     11 C          57.8553   91.3831    4.8764 C.3     1  UNL1        0.1168
     12 H          61.2429   89.6003    6.7584 H       1  UNL1        0.1514
     13 C          60.4494   91.4276    5.0129 C.3     1  UNL1        0.1413
     14 C          60.5618   92.1096    3.6816 C.ar    1  UNL1        0.0858
     15 C          61.8200   92.2840    2.8838 C.ar    1  UNL1        0.0530
     16 S          61.4717   93.0190    1.6235 S.2     1  UNL1       -0.0705
     17 C          59.9981   93.2989    1.6423 C.ar    1  UNL1        0.0875
     18 N          59.4358   92.7368    2.9143 N.ar    1  UNL1       -0.2453
     19 C          59.2229   94.0151    0.5764 C.3     1  UNL1        0.0465
     20 C          59.3889   95.4947    0.3945 C.3     1  UNL1        0.0069
     21 C          58.2818   93.2516   -0.3076 C.3     1  UNL1        0.0069
     22 C          59.8713   86.7543    7.6729 C.3     1  UNL1        0.0270
     23 C          60.8516   85.7356    7.1716 C.3     1  UNL1        0.0022
     24 C          58.4167   86.4051    7.7823 C.3     1  UNL1        0.0022
     25 C          63.2073   90.0747   11.5929 C.3     1  UNL1        0.0213
     26 C          63.7086   91.0848   12.5820 C.3     1  UNL1        0.0217
     27 C          64.2600   90.6326   13.9017 C.3     1  UNL1        0.0792
     28 N          64.3415   89.1687   14.2185 N.am    1  UNL1       -0.2720
     29 C          63.5336   88.5994   15.3470 C.2     1  UNL1        0.4019
     30 O          62.6442   89.4940   16.1585 O.2     1  UNL1       -0.2264
     31 H          64.9252   88.5815   13.6859 H       1  UNL1        0.1527
     32 O          63.6151   87.1355   15.6638 O.3     1  UNL1       -0.4291
     33 C          64.3577   86.2098   14.7464 C.3     1  UNL1        0.2447
     34 C          63.9191   84.7823   14.6055 C.ar    1  UNL1        0.0714
     35 C          62.8918   84.0881   15.4497 C.ar    1  UNL1        0.1053
     36 N          62.7686   82.6751   14.9615 N.ar    1  UNL1       -0.2350
     37 C          63.7198   82.4960   13.8157 C.ar    1  UNL1        0.1343
     38 S          64.4309   83.7983   13.5956 S.2     1  UNL1       -0.0652
     39 C          64.7299   91.6442   14.9045 C.3     1  UNL1        0.0460
     40 C          66.1797   92.0249   14.9631 C.ar    1  UNL1       -0.0205
     41 C          67.0918   91.6816   13.8229 C.ar    1  UNL1       -0.0042
     42 C          68.5415   92.0623   13.8815 C.ar    1  UNL1       -0.0003
     43 C          69.0790   92.7862   15.0802 C.ar    1  UNL1       -0.0000
     44 C          68.1668   93.1295   16.2204 C.ar    1  UNL1       -0.0003
     45 C          66.7172   92.7488   16.1618 C.ar    1  UNL1       -0.0042
     46 C          60.7234   90.2103   12.3425 C.3     1  UNL1        0.0196
     47 C          58.4404   89.0371   12.7441 C.3     1  UNL1        0.0001
     48 C          59.2635   90.0672   12.0290 C.3     1  UNL1        0.0017
@<TRIPOS>BOND
     1    47    48    1
     2    48    46    1
     3     1    46    1
     4     1    25    1
     5    25    26    1
     6    27    26    1
     7    27    39    1
     8    39    40    1
     9    40    41   ar
    10    41    42   ar
    11    42    43   ar
    12    43    44   ar
    13    44    45   ar
    14    27    28    1
    15    28    29   am
    16    29    30    2
    17    29    32    1
    18    32    33    1
    19    33    34    1
    20    34    35   ar
    21    35    36   ar
    22    36    37   ar
    23    37    38   ar
    24     1     2    1
    25     2     3   am
    26     3     4    2
    27     3     6    1
    28     6     7    1
    29     7     8   am
    30     8     9    2
    31     8    10   am
    32    10    11    1
    33    10    13    1
    34    13    14    1
    35    14    15   ar
    36    15    16   ar
    37    16    17   ar
    38    17    19    1
    39    19    20    1
    40    19    21    1
    41    17    18   ar
    42     6    22    1
    43    22    23    1
    44    22    24    1
    45    45    40   ar
    46    38    34   ar
    47    18    14   ar
    48    28    31    1
    49     2     5    1
    50     7    12    1
@<TRIPOS>MOLECULE
*****
 48 50 0 0 0
SMALL
GASTEIGER

@<TRIPOS>ATOM
      1 C          62.4352   88.2956   11.3209 C.3     1  UNL1        0.0717
      2 N          61.9998   88.0247    9.9113 N.am    1  UNL1       -0.3046
      3 C          60.6739   88.5308    9.4254 C.2     1  UNL1        0.2403
      4 O          59.7835   89.3078   10.3492 O.2     1  UNL1       -0.2733
      5 H          62.5843   87.5148    9.3049 H       1  UNL1        0.1494
      6 C          60.2386   88.2600    8.0158 C.3     1  UNL1        0.1496
      7 N          60.2664   89.3611    6.9975 N.am    1  UNL1       -0.2824
      8 C          58.9840   89.8748    6.4131 C.2     1  UNL1        0.3046
      9 O          57.6737   89.2872    6.8469 O.2     1  UNL1       -0.2526
     10 N          59.0118   90.9758    5.3949 N.am    1  UNL1       -0.2567
     11 C          57.7294   91.4895    4.8105 C.3     1  UNL1        0.1168
     12 H          61.1264   89.7467    6.7128 H       1  UNL1        0.1514
     13 C          60.3220   91.5633    4.9611 C.3     1  UNL1        0.1413
     14 C          60.4463   92.2038    3.6104 C.ar    1  UNL1        0.0858
     15 C          61.7165   92.3822    2.8327 C.ar    1  UNL1        0.0530
     16 S          61.3774   93.0671    1.5420 S.2     1  UNL1       -0.0705
     17 C          59.8976   93.3119    1.5219 C.ar    1  UNL1        0.0875
     18 N          59.3222   92.7784    2.8003 N.ar    1  UNL1       -0.2453
     19 C          59.1284   93.9740    0.4175 C.3     1  UNL1        0.0465
     20 C          58.1645   93.1750   -0.4087 C.3     1  UNL1        0.0069
     21 C          59.3230   95.4351    0.1392 C.3     1  UNL1        0.0069
     22 C          59.7754   86.8880    7.6244 C.3     1  UNL1        0.0270
     23 C          60.7560   85.8925    7.0791 C.3     1  UNL1        0.0022
     24 C          58.3316   86.5116    7.7783 C.3     1  UNL1        0.0022
     25 C          62.4524   89.7014   11.8435 C.3     1  UNL1        0.0213
     26 C          63.7456   90.3234   12.2803 C.3     1  UNL1        0.0217
     27 C          64.1741   90.2337   13.7150 C.3     1  UNL1        0.0792
     28 N          64.3067   88.8936   14.3758 N.am    1  UNL1       -0.2720
     29 C          63.4268   88.5402   15.5381 C.2     1  UNL1        0.4019
     30 O          62.4144   89.5268   16.0396 O.2     1  UNL1       -0.2264
     31 H          64.9712   88.2460   14.0466 H       1  UNL1        0.1527
     32 O          63.5593   87.2001   16.1989 O.3     1  UNL1       -0.4291
     33 C          64.4421   86.1494   15.5934 C.3     1  UNL1        0.2447
     34 C          63.8584   84.8366   15.1623 C.ar    1  UNL1        0.0714
     35 C          62.5179   84.2943   15.5610 C.ar    1  UNL1        0.1053
     36 N          62.3436   82.9582   14.9019 N.ar    1  UNL1       -0.2350
     37 C          63.5765   82.6747   14.0958 C.ar    1  UNL1        0.1343
     38 S          64.5126   83.8356   14.2567 S.2     1  UNL1       -0.0652
     39 C          64.4701   91.4840   14.4890 C.3     1  UNL1        0.0460
     40 C          65.8915   91.9003   14.7267 C.ar    1  UNL1       -0.0205
     41 C          66.9358   91.6324   13.6838 C.ar    1  UNL1       -0.0042
     42 C          68.3571   92.0486   13.9216 C.ar    1  UNL1       -0.0003
     43 C          68.7341   92.7327   15.2022 C.ar    1  UNL1       -0.0000
     44 C          67.6898   93.0005   16.2450 C.ar    1  UNL1       -0.0003
     45 C          66.2685   92.5843   16.0073 C.ar    1  UNL1       -0.0042
     46 C          62.8534   87.1605   12.2080 C.3     1  UNL1        0.0196
     47 C          62.7815   84.8590   11.0047 C.3     1  UNL1        0.0001
     48 C          62.2356   85.8049   12.0328 C.3     1  UNL1        0.0017
@<TRIPOS>BOND
     1    47    48    1
     2    48    46    1
     3     1    46    1
     4     1    25    1
     5    25    26    1
     6    27    26    1
     7    27    39    1
     8    39    40    1
     9    40    41   ar
    10    41    42   ar
    11    42    43   ar
    12    43    44   ar
    13    44    45   ar
    14    27    28    1
    15    28    29   am
    16    29    30    2
    17    29    32    1
    18    32    33    1
    19    33    34    1
    20    34    35   ar
    21    35    36   ar
    22    36    37   ar
    23    37    38   ar
    24     1     2    1
    25     2     3   am
    26     3     4    2
    27     3     6    1
    28     6     7    1
    29     7     8   am
    30     8     9    2
    31     8    10   am
    32    10    11    1
    33    10    13    1
    34    13    14    1
    35    14    15   ar
    36    15    16   ar
    37    16    17   ar
    38    17    19    1
    39    19    20    1
    40    19    21    1
    41    17    18   ar
    42     6    22    1
    43    22    23    1
    44    22    24    1
    45    45    40   ar
    46    38    34   ar
    47    18    14   ar
    48    28    31    1
    49     2     5    1
    50     7    12    1
@<TRIPOS>MOLECULE
*****
 48 50 0 0 0
SMALL
GASTEIGER

@<TRIPOS>ATOM
      1 C          63.3514   86.4879   13.3617 C.3     1  UNL1        0.0717
      2 N          63.8228   87.7681   12.7382 N.am    1  UNL1       -0.3046
      3 C          63.2440   89.0777   13.1853 C.2     1  UNL1        0.2403
      4 O          62.1937   89.1071   14.2558 O.2     1  UNL1       -0.2733
      5 H          64.5122   87.7488   12.0356 H       1  UNL1        0.1494
      6 C          63.7155   90.3580   12.5618 C.3     1  UNL1        0.1496
      7 N          64.8781   91.0974   13.1548 N.am    1  UNL1       -0.2824
      8 C          64.8187   91.5719   14.5766 C.2     1  UNL1        0.3046
      9 O          63.5967   91.3068   15.4053 O.2     1  UNL1       -0.2526
     10 N          65.9812   92.3113   15.1697 N.am    1  UNL1       -0.2567
     11 C          65.9218   92.7857   16.5914 C.3     1  UNL1        0.1168
     12 H          65.6800   91.2713   12.6109 H       1  UNL1        0.1514
     13 C          67.2031   92.5762   14.3410 C.3     1  UNL1        0.1413
     14 C          67.0662   93.1792   12.9743 C.ar    1  UNL1        0.0858
     15 C          66.2415   94.3808   12.6193 C.ar    1  UNL1        0.0530
     16 S          66.3956   94.6306   11.1483 S.2     1  UNL1       -0.0705
     17 C          67.3155   93.5833   10.5941 C.ar    1  UNL1        0.0875
     18 N          67.7299   92.6863   11.7227 N.ar    1  UNL1       -0.2453
     19 C          67.7454   93.4556    9.1628 C.3     1  UNL1        0.0465
     20 C          68.5525   92.2693    8.7252 C.3     1  UNL1        0.0069
     21 C          67.3682   94.5140    8.1690 C.3     1  UNL1        0.0069
     22 C          63.0244   90.8987   11.3453 C.3     1  UNL1        0.0270
     23 C          61.5924   90.5426   11.0756 C.3     1  UNL1        0.0022
     24 C          63.7653   91.7956   10.3984 C.3     1  UNL1        0.0022
     25 C          62.3414   85.6355   12.6523 C.3     1  UNL1        0.0213
     26 C          61.5081   86.2202   11.5506 C.3     1  UNL1        0.0217
     27 C          62.0221   86.2214   10.1413 C.3     1  UNL1        0.0792
     28 N          61.8383   87.4336    9.2771 N.am    1  UNL1       -0.2720
     29 C          60.4802   87.7702    8.7363 C.2     1  UNL1        0.4019
     30 O          59.3060   86.8948    9.0598 O.2     1  UNL1       -0.2264
     31 H          62.6090   88.0082    9.0648 H       1  UNL1        0.1527
     32 O          60.2964   88.9824    7.8721 O.3     1  UNL1       -0.4291
     33 C          59.2372   88.9927    6.8101 C.3     1  UNL1        0.2447
     34 C          59.0862   90.1854    5.9130 C.ar    1  UNL1        0.0714
     35 C          57.7950   90.8550    5.5463 C.ar    1  UNL1        0.1053
     36 N          58.1106   92.0013    4.6318 N.ar    1  UNL1       -0.2350
     37 C          59.5969   92.0401    4.4332 C.ar    1  UNL1        0.1343
     38 S          60.1998   90.9178    5.2250 S.2     1  UNL1       -0.0652
     39 C          62.7197   85.0106    9.5964 C.3     1  UNL1        0.0460
     40 C          63.1514   83.9130   10.5233 C.ar    1  UNL1       -0.0205
     41 C          64.5821   83.8235   10.9648 C.ar    1  UNL1       -0.0042
     42 C          65.0137   82.7259   11.8916 C.ar    1  UNL1       -0.0003
     43 C          64.0145   81.7179   12.3770 C.ar    1  UNL1       -0.0000
     44 C          62.5838   81.8075   11.9356 C.ar    1  UNL1       -0.0003
     45 C          62.1522   82.9050   11.0087 C.ar    1  UNL1       -0.0042
     46 C          63.8900   86.0600   14.6948 C.3     1  UNL1        0.0196
     47 C          63.1382   83.6585   15.3406 C.3     1  UNL1        0.0001
     48 C          64.2202   84.6179   14.9424 C.3     1  UNL1        0.0017
@<TRIPOS>BOND
     1    47    48    1
     2    48    46    1
     3     1    46    1
     4     1    25    1
     5    25    26    1
     6    27    26    1
     7    27    39    1
     8    39    40    1
     9    40    41   ar
    10    41    42   ar
    11    42    43   ar
    12    43    44   ar
    13    44    45   ar
    14    27    28    1
    15    28    29   am
    16    29    30    2
    17    29    32    1
    18    32    33    1
    19    33    34    1
    20    34    35   ar
    21    35    36   ar
    22    36    37   ar
    23    37    38   ar
    24     1     2    1
    25     2     3   am
    26     3     4    2
    27     3     6    1
    28     6     7    1
    29     7     8   am
    30     8     9    2
    31     8    10   am
    32    10    11    1
    33    10    13    1
    34    13    14    1
    35    14    15   ar
    36    15    16   ar
    37    16    17   ar
    38    17    19    1
    39    19    20    1
    40    19    21    1
    41    17    18   ar
    42     6    22    1
    43    22    23    1
    44    22    24    1
    45    45    40   ar
    46    38    34   ar
    47    18    14   ar
    48    28    31    1
    49     2     5    1
    50     7    12    1
