@<TRIPOS>MOLECULE
*****
 33 37 0 0 0
SMALL
GASTEIGER

@<TRIPOS>ATOM
      1 S          72.2003   74.1418   14.1116 S.O2    1  UNL1        0.0802
      2 O          73.5348   73.6208   13.6670 O.2     1  UNL1       -0.1494
      3 O          70.8658   74.6628   14.5561 O.2     1  UNL1       -0.1494
      4 N          71.9359   72.8517   14.8298 N.pl3   1  UNL1       -0.1665
      5 C          72.4160   72.7870   16.2494 C.ar    1  UNL1        0.0732
      6 C          73.0799   74.0671   16.6623 C.ar    1  UNL1        0.0163
      7 C          73.6329   74.2118   18.0491 C.ar    1  UNL1        0.0013
      8 C          73.5220   73.0763   19.0230 C.ar    1  UNL1       -0.0001
      9 C          72.8581   71.7962   18.6101 C.ar    1  UNL1        0.0006
     10 C          72.3052   71.6515   17.2233 C.ar    1  UNL1        0.0364
     11 C          71.6867   70.3004   17.0180 C.3     1  UNL1        0.2333
     12 O          71.0265   69.7510   15.7883 O.3     1  UNL1       -0.4692
     13 C          70.8215   70.4172   14.4601 C.ar    1  UNL1        0.1564
     14 C          70.1127   69.5120   13.4967 C.ar    1  UNL1        0.0679
     15 C          69.8085   69.9868   12.1066 C.ar    1  UNL1        0.1433
     16 F          69.0996   69.0816   11.1432 F       1  UNL1       -0.2041
     17 C          70.2132   71.3667   11.6801 C.ar    1  UNL1        0.0312
     18 C          70.9221   72.2718   12.6435 C.ar    1  UNL1        0.0219
     19 C          71.2262   71.7971   14.0334 C.ar    1  UNL1        0.1076
     20 C          72.6514   78.3270   15.3405 C.3     1  UNL1        0.0484
     21 C          72.9153   79.2874   14.2189 C.3     1  UNL1        0.1550
     22 C          72.9167   80.2366   15.3804 C.3     1  UNL1        0.0484
     23 O          73.1797   80.5775   13.5007 O.3     1  UNL1       -0.4612
     24 C          73.3511   80.5847   12.0105 C.2     1  UNL1        0.2333
     25 S          73.6155   81.8748   11.2923 S.2     1  UNL1        0.0061
     26 N          73.2580   79.3020   11.2386 N.am    1  UNL1       -0.2785
     27 C          72.9936   78.0119   11.9568 C.ar    1  UNL1        0.0501
     28 C          72.9005   76.7292   11.1849 C.ar    1  UNL1        0.0159
     29 C          72.6361   75.4391   11.9031 C.ar    1  UNL1        0.0215
     30 C          72.4647   75.4319   13.3933 C.ar    1  UNL1        0.1256
     31 C          72.5578   76.7146   14.1652 C.ar    1  UNL1        0.0205
     32 C          72.8222   78.0046   13.4470 C.ar    1  UNL1        0.0284
     33 H          73.3705   79.3068   10.2605 H       1  UNL1        0.1555
@<TRIPOS>BOND
     1    20    21    1
     2    21    22    1
     3    21    23    1
     4    23    24    1
     5    24    25    2
     6    24    26    1
     7    26    27    1
     8    27    28   ar
     9    28    29   ar
    10    29    30   ar
    11    30     1    1
    12     1     2    2
    13     1     3    2
    14     1     4    1
    15     4     5    1
    16     5     6   ar
    17     6     7   ar
    18     7     8   ar
    19     8     9   ar
    20     9    10   ar
    21    10    11    1
    22    11    12    1
    23    12    13    1
    24    13    14   ar
    25    14    15   ar
    26    15    16    1
    27    15    17   ar
    28    17    18   ar
    29    18    19   ar
    30    30    31   ar
    31    31    32   ar
    32    32    21    1
    33    32    27   ar
    34    19     4    1
    35    10     5   ar
    36    19    13   ar
    37    26    33    1
@<TRIPOS>MOLECULE
*****
 33 37 0 0 0
SMALL
GASTEIGER

@<TRIPOS>ATOM
      1 S          63.4309   87.9031   13.1848 S.O2    1  UNL1        0.0802
      2 O          64.6837   88.0254   14.0006 O.2     1  UNL1       -0.1494
      3 O          62.1782   87.7808   12.3689 O.2     1  UNL1       -0.1494
      4 N          63.1372   86.5831   13.8338 N.pl3   1  UNL1       -0.1665
      5 C          63.0266   85.4111   12.9041 C.ar    1  UNL1        0.0732
      6 C          63.2401   85.8214   11.4772 C.ar    1  UNL1        0.0163
      7 C          63.1713   84.7968   10.3839 C.ar    1  UNL1        0.0013
      8 C          62.8891   83.3618   10.7174 C.ar    1  UNL1       -0.0001
      9 C          62.6756   82.9515   12.1443 C.ar    1  UNL1        0.0006
     10 C          62.7444   83.9761   13.2376 C.ar    1  UNL1        0.0364
     11 C          62.5031   83.3588   14.5833 C.3     1  UNL1        0.2333
     12 O          62.4844   84.0238   15.9276 O.3     1  UNL1       -0.4692
     13 C          62.7024   85.4706   16.2584 C.ar    1  UNL1        0.1564
     14 C          62.5980   85.7170   17.7343 C.ar    1  UNL1        0.0679
     15 C          62.7841   87.1025   18.2784 C.ar    1  UNL1        0.1433
     16 F          62.6797   87.3489   19.7543 F       1  UNL1       -0.2041
     17 C          63.0746   88.2414   17.3466 C.ar    1  UNL1        0.0312
     18 C          63.1790   87.9950   15.8707 C.ar    1  UNL1        0.0219
     19 C          62.9929   86.6096   15.3266 C.ar    1  UNL1        0.1076
     20 C          65.8907   91.3804   14.2279 C.3     1  UNL1        0.0484
     21 C          65.8609   92.4960   13.2255 C.3     1  UNL1        0.1550
     22 C          66.7924   93.0849   14.2430 C.3     1  UNL1        0.0484
     23 O          66.1546   93.8160   12.5765 O.3     1  UNL1       -0.4612
     24 C          65.5271   94.1596   11.2581 C.2     1  UNL1        0.2333
     25 S          65.8209   95.4797   10.6091 S.2     1  UNL1        0.0061
     26 N          64.6059   93.1833   10.5887 N.am    1  UNL1       -0.2785
     27 C          64.3121   91.8632   11.2377 C.ar    1  UNL1        0.0501
     28 C          63.3909   90.8869   10.5683 C.ar    1  UNL1        0.0159
     29 C          63.0972   89.5669   11.2173 C.ar    1  UNL1        0.0215
     30 C          63.7247   89.2232   12.5358 C.ar    1  UNL1        0.1256
     31 C          64.6459   90.1996   13.2051 C.ar    1  UNL1        0.0205
     32 C          64.9396   91.5195   12.5561 C.ar    1  UNL1        0.0284
     33 H          64.1940   93.4089    9.7234 H       1  UNL1        0.1555
@<TRIPOS>BOND
     1    20    21    1
     2    21    22    1
     3    21    23    1
     4    23    24    1
     5    24    25    2
     6    24    26    1
     7    26    27    1
     8    27    28   ar
     9    28    29   ar
    10    29    30   ar
    11    30     1    1
    12     1     2    2
    13     1     3    2
    14     1     4    1
    15     4     5    1
    16     5     6   ar
    17     6     7   ar
    18     7     8   ar
    19     8     9   ar
    20     9    10   ar
    21    10    11    1
    22    11    12    1
    23    12    13    1
    24    13    14   ar
    25    14    15   ar
    26    15    16    1
    27    15    17   ar
    28    17    18   ar
    29    18    19   ar
    30    30    31   ar
    31    31    32   ar
    32    32    21    1
    33    32    27   ar
    34    19     4    1
    35    10     5   ar
    36    19    13   ar
    37    26    33    1
@<TRIPOS>MOLECULE
*****
 33 37 0 0 0
SMALL
GASTEIGER

@<TRIPOS>ATOM
      1 S          63.4980   87.9428   13.2564 S.O2    1  UNL1        0.0802
      2 O          62.2701   87.7252   12.4227 O.2     1  UNL1       -0.1494
      3 O          64.7258   88.1604   14.0902 O.2     1  UNL1       -0.1494
      4 N          63.2368   86.6536   13.9774 N.pl3   1  UNL1       -0.1665
      5 C          63.0734   86.7612   15.4646 C.ar    1  UNL1        0.0732
      6 C          63.2102   88.1807   15.9297 C.ar    1  UNL1        0.0163
      7 C          63.0801   88.5080   17.3877 C.ar    1  UNL1        0.0013
      8 C          62.8132   87.4158   18.3806 C.ar    1  UNL1       -0.0001
      9 C          62.6763   85.9964   17.9156 C.ar    1  UNL1        0.0006
     10 C          62.8065   85.6691   16.4575 C.ar    1  UNL1        0.0364
     11 C          62.6370   84.1996   16.2085 C.3     1  UNL1        0.2333
     12 O          62.6926   83.4593   14.9051 O.3     1  UNL1       -0.4692
     13 C          62.9315   84.0058   13.5287 C.ar    1  UNL1        0.1564
     14 C          62.9077   82.9184   12.4957 C.ar    1  UNL1        0.0679
     15 C          63.1261   83.2527   11.0498 C.ar    1  UNL1        0.1433
     16 F          63.1023   82.1654   10.0167 F       1  UNL1       -0.2041
     17 C          63.3683   84.6742   10.6369 C.ar    1  UNL1        0.0312
     18 C          63.3921   85.7615   11.6699 C.ar    1  UNL1        0.0219
     19 C          63.1737   85.4274   13.1158 C.ar    1  UNL1        0.1076
     20 C          65.8625   91.5362   14.1085 C.3     1  UNL1        0.0484
     21 C          65.8067   92.5932   13.0455 C.3     1  UNL1        0.1550
     22 C          66.7193   93.2620   14.0302 C.3     1  UNL1        0.0484
     23 O          66.0678   93.8824   12.3246 O.3     1  UNL1       -0.4612
     24 C          65.4357   94.1355   10.9881 C.2     1  UNL1        0.2333
     25 S          65.6968   95.4247   10.2671 S.2     1  UNL1        0.0061
     26 N          64.5424   93.0996   10.3725 N.am    1  UNL1       -0.2785
     27 C          64.2813   91.8103   11.0934 C.ar    1  UNL1        0.0501
     28 C          63.3881   90.7744   10.4779 C.ar    1  UNL1        0.0159
     29 C          63.1270   89.4852   11.1989 C.ar    1  UNL1        0.0215
     30 C          63.7591   89.2320   12.5354 C.ar    1  UNL1        0.1256
     31 C          64.6523   90.2680   13.1509 C.ar    1  UNL1        0.0205
     32 C          64.9134   91.5571   12.4300 C.ar    1  UNL1        0.0284
     33 H          64.1275   93.2658    9.4953 H       1  UNL1        0.1555
@<TRIPOS>BOND
     1    20    21    1
     2    21    22    1
     3    21    23    1
     4    23    24    1
     5    24    25    2
     6    24    26    1
     7    26    27    1
     8    27    28   ar
     9    28    29   ar
    10    29    30   ar
    11    30     1    1
    12     1     2    2
    13     1     3    2
    14     1     4    1
    15     4     5    1
    16     5     6   ar
    17     6     7   ar
    18     7     8   ar
    19     8     9   ar
    20     9    10   ar
    21    10    11    1
    22    11    12    1
    23    12    13    1
    24    13    14   ar
    25    14    15   ar
    26    15    16    1
    27    15    17   ar
    28    17    18   ar
    29    18    19   ar
    30    30    31   ar
    31    31    32   ar
    32    32    21    1
    33    32    27   ar
    34    19     4    1
    35    10     5   ar
    36    19    13   ar
    37    26    33    1
@<TRIPOS>MOLECULE
*****
 33 37 0 0 0
SMALL
GASTEIGER

@<TRIPOS>ATOM
      1 S          63.8667   89.3319   13.5635 S.O2    1  UNL1        0.0802
      2 O          64.5382   89.7031   12.2745 O.2     1  UNL1       -0.1494
      3 O          63.1952   88.9607   14.8524 O.2     1  UNL1       -0.1494
      4 N          63.0686   88.2840   12.8459 N.pl3   1  UNL1       -0.1665
      5 C          62.0811   88.7943   11.8386 C.ar    1  UNL1        0.0732
      6 C          62.1023   90.2920   11.7605 C.ar    1  UNL1        0.0163
      7 C          61.1871   91.0065   10.8108 C.ar    1  UNL1        0.0013
      8 C          60.2507   90.2232    9.9394 C.ar    1  UNL1       -0.0001
      9 C          60.2294   88.7254   10.0175 C.ar    1  UNL1        0.0006
     10 C          61.1447   88.0110   10.9671 C.ar    1  UNL1        0.0364
     11 C          60.9644   86.5239   10.8877 C.3     1  UNL1        0.2333
     12 O          61.6760   85.4529   11.6601 O.3     1  UNL1       -0.4692
     13 C          62.7437   85.6045   12.7028 C.ar    1  UNL1        0.1564
     14 C          63.1884   84.2723   13.2294 C.ar    1  UNL1        0.0679
     15 C          64.2530   84.2000   14.2838 C.ar    1  UNL1        0.1433
     16 F          64.6977   82.8677   14.8104 F       1  UNL1       -0.2041
     17 C          64.8727   85.4599   14.8114 C.ar    1  UNL1        0.0312
     18 C          64.4280   86.7921   14.2848 C.ar    1  UNL1        0.0219
     19 C          63.3635   86.8645   13.2305 C.ar    1  UNL1        0.1076
     20 C          67.8173   91.1445   12.9828 C.3     1  UNL1        0.0484
     21 C          68.1870   92.1864   13.9967 C.3     1  UNL1        0.1550
     22 C          69.4206   92.2038   13.1436 C.3     1  UNL1        0.0484
     23 O          68.9851   93.2343   14.7143 O.3     1  UNL1       -0.4612
     24 C          68.4211   93.9028   15.9328 C.2     1  UNL1        0.2333
     25 S          69.2192   94.9508   16.6504 S.2     1  UNL1        0.0061
     26 N          67.0590   93.5236   16.4338 N.am    1  UNL1       -0.2785
     27 C          66.2609   92.4756   15.7163 C.ar    1  UNL1        0.0501
     28 C          64.8990   92.0964   16.2172 C.ar    1  UNL1        0.0159
     29 C          64.1008   91.0484   15.4997 C.ar    1  UNL1        0.0215
     30 C          64.6648   90.3798   14.2811 C.ar    1  UNL1        0.1256
     31 C          66.0268   90.7592   13.7801 C.ar    1  UNL1        0.0205
     32 C          66.8249   91.8070   14.4977 C.ar    1  UNL1        0.0284
     33 H          66.6889   93.9624   17.2336 H       1  UNL1        0.1555
@<TRIPOS>BOND
     1    20    21    1
     2    21    22    1
     3    21    23    1
     4    23    24    1
     5    24    25    2
     6    24    26    1
     7    26    27    1
     8    27    28   ar
     9    28    29   ar
    10    29    30   ar
    11    30     1    1
    12     1     2    2
    13     1     3    2
    14     1     4    1
    15     4     5    1
    16     5     6   ar
    17     6     7   ar
    18     7     8   ar
    19     8     9   ar
    20     9    10   ar
    21    10    11    1
    22    11    12    1
    23    12    13    1
    24    13    14   ar
    25    14    15   ar
    26    15    16    1
    27    15    17   ar
    28    17    18   ar
    29    18    19   ar
    30    30    31   ar
    31    31    32   ar
    32    32    21    1
    33    32    27   ar
    34    19     4    1
    35    10     5   ar
    36    19    13   ar
    37    26    33    1
@<TRIPOS>MOLECULE
*****
 33 37 0 0 0
SMALL
GASTEIGER

@<TRIPOS>ATOM
      1 S          63.1533   85.9431   12.9615 S.O2    1  UNL1        0.0802
      2 O          61.7831   86.2165   12.4156 O.2     1  UNL1       -0.1494
      3 O          64.5235   85.6697   13.5073 O.2     1  UNL1       -0.1494
      4 N          63.1312   87.2611   13.6773 N.pl3   1  UNL1       -0.1665
      5 C          63.1265   87.1879   15.1755 C.ar    1  UNL1        0.0732
      6 C          63.1455   85.7667   15.6549 C.ar    1  UNL1        0.0163
      7 C          63.1442   85.4712   17.1254 C.ar    1  UNL1        0.0013
      8 C          63.1238   86.5968   18.1166 C.ar    1  UNL1       -0.0001
      9 C          63.1048   88.0180   17.6373 C.ar    1  UNL1        0.0006
     10 C          63.1061   88.3135   16.1667 C.ar    1  UNL1        0.0364
     11 C          63.0854   89.7903   15.9045 C.3     1  UNL1        0.2333
     12 O          63.0799   90.5062   14.5864 O.3     1  UNL1       -0.4692
     13 C          63.0938   89.9221   13.2049 C.ar    1  UNL1        0.1564
     14 C          63.0821   90.9946   12.1563 C.ar    1  UNL1        0.0679
     15 C          63.0932   90.6229   10.7031 C.ar    1  UNL1        0.1433
     16 F          63.0814   91.6955    9.6545 F       1  UNL1       -0.2041
     17 C          63.1160   89.1787   10.2985 C.ar    1  UNL1        0.0312
     18 C          63.1277   88.1062   11.3471 C.ar    1  UNL1        0.0219
     19 C          63.1166   88.4778   12.8002 C.ar    1  UNL1        0.1076
     20 C          62.2514   81.8010   14.0838 C.3     1  UNL1        0.0484
     21 C          62.4285   80.7977   12.9829 C.3     1  UNL1        0.1550
     22 C          61.9824   79.8915   14.0918 C.3     1  UNL1        0.0484
     23 O          62.4506   79.4797   12.2670 O.3     1  UNL1       -0.4612
     24 C          62.8573   79.4165   10.8246 C.2     1  UNL1        0.2333
     25 S          62.8795   78.0985   10.1088 S.2     1  UNL1        0.0061
     26 N          63.2419   80.6712   10.0980 N.am    1  UNL1       -0.2785
     27 C          63.2198   81.9892   10.8138 C.ar    1  UNL1        0.0501
     28 C          63.6043   83.2438   10.0873 C.ar    1  UNL1        0.0159
     29 C          63.5822   84.5618   10.8031 C.ar    1  UNL1        0.0215
     30 C          63.1754   84.6251   12.2456 C.ar    1  UNL1        0.1256
     31 C          62.7909   83.3704   12.9721 C.ar    1  UNL1        0.0205
     32 C          62.8130   82.0525   12.2563 C.ar    1  UNL1        0.0284
     33 H          63.5089   80.6296    9.1513 H       1  UNL1        0.1555
@<TRIPOS>BOND
     1    20    21    1
     2    21    22    1
     3    21    23    1
     4    23    24    1
     5    24    25    2
     6    24    26    1
     7    26    27    1
     8    27    28   ar
     9    28    29   ar
    10    29    30   ar
    11    30     1    1
    12     1     2    2
    13     1     3    2
    14     1     4    1
    15     4     5    1
    16     5     6   ar
    17     6     7   ar
    18     7     8   ar
    19     8     9   ar
    20     9    10   ar
    21    10    11    1
    22    11    12    1
    23    12    13    1
    24    13    14   ar
    25    14    15   ar
    26    15    16    1
    27    15    17   ar
    28    17    18   ar
    29    18    19   ar
    30    30    31   ar
    31    31    32   ar
    32    32    21    1
    33    32    27   ar
    34    19     4    1
    35    10     5   ar
    36    19    13   ar
    37    26    33    1
@<TRIPOS>MOLECULE
*****
 33 37 0 0 0
SMALL
GASTEIGER

@<TRIPOS>ATOM
      1 S          62.4857   85.2067   11.4282 S.O2    1  UNL1        0.0802
      2 O          61.3838   85.6892   12.3243 O.2     1  UNL1       -0.1494
      3 O          63.5877   84.7242   10.5321 O.2     1  UNL1       -0.1494
      4 N          63.1292   84.5137   12.5926 N.pl3   1  UNL1       -0.1665
      5 C          63.7196   85.4117   13.6391 C.ar    1  UNL1        0.0732
      6 C          63.5351   86.8582   13.2876 C.ar    1  UNL1        0.0163
      7 C          64.0547   87.9251   14.2050 C.ar    1  UNL1        0.0013
      8 C          64.7589   87.5455   15.4738 C.ar    1  UNL1       -0.0001
      9 C          64.9434   86.0990   15.8254 C.ar    1  UNL1        0.0006
     10 C          64.4238   85.0321   14.9080 C.ar    1  UNL1        0.0364
     11 C          64.7115   83.6609   15.4437 C.3     1  UNL1        0.2333
     12 O          64.3662   82.3305   14.8429 O.3     1  UNL1       -0.4692
     13 C          63.6477   82.0429   13.5579 C.ar    1  UNL1        0.1564
     14 C          63.5074   80.5675   13.3269 C.ar    1  UNL1        0.0679
     15 C          62.8165   80.0636   12.0945 C.ar    1  UNL1        0.1433
     16 F          62.6762   78.5882   11.8635 F       1  UNL1       -0.2041
     17 C          62.2660   81.0352   11.0930 C.ar    1  UNL1        0.0312
     18 C          62.4064   82.5106   11.3240 C.ar    1  UNL1        0.0219
     19 C          63.0972   83.0145   12.5564 C.ar    1  UNL1        0.1076
     20 C          60.6132   89.1240   10.8131 C.3     1  UNL1        0.0484
     21 C          60.0987   89.3647    9.4247 C.3     1  UNL1        0.1550
     22 C          59.7273   90.6670   10.0696 C.3     1  UNL1        0.0484
     23 O          59.4552   90.0576    8.2604 O.3     1  UNL1       -0.4612
     24 C          59.3618   89.3646    6.9334 C.2     1  UNL1        0.2333
     25 S          58.7184   90.0575    5.7690 S.2     1  UNL1        0.0061
     26 N          59.9119   87.9785    6.7707 N.am    1  UNL1       -0.2785
     27 C          60.5554   87.2856    7.9351 C.ar    1  UNL1        0.0501
     28 C          61.1054   85.8996    7.7724 C.ar    1  UNL1        0.0159
     29 C          61.7489   85.2066    8.9368 C.ar    1  UNL1        0.0215
     30 C          61.8423   85.8997   10.2639 C.ar    1  UNL1        0.1256
     31 C          61.2922   87.2857   10.4264 C.ar    1  UNL1        0.0205
     32 C          60.6488   87.9786    9.2621 C.ar    1  UNL1        0.0284
     33 H          59.8506   87.5237    5.8997 H       1  UNL1        0.1555
@<TRIPOS>BOND
     1    20    21    1
     2    21    22    1
     3    21    23    1
     4    23    24    1
     5    24    25    2
     6    24    26    1
     7    26    27    1
     8    27    28   ar
     9    28    29   ar
    10    29    30   ar
    11    30     1    1
    12     1     2    2
    13     1     3    2
    14     1     4    1
    15     4     5    1
    16     5     6   ar
    17     6     7   ar
    18     7     8   ar
    19     8     9   ar
    20     9    10   ar
    21    10    11    1
    22    11    12    1
    23    12    13    1
    24    13    14   ar
    25    14    15   ar
    26    15    16    1
    27    15    17   ar
    28    17    18   ar
    29    18    19   ar
    30    30    31   ar
    31    31    32   ar
    32    32    21    1
    33    32    27   ar
    34    19     4    1
    35    10     5   ar
    36    19    13   ar
    37    26    33    1
@<TRIPOS>MOLECULE
*****
 33 37 0 0 0
SMALL
GASTEIGER

@<TRIPOS>ATOM
      1 S          62.3006   86.4398   12.0749 S.O2    1  UNL1        0.0802
      2 O          63.5149   86.1113   11.2579 O.2     1  UNL1       -0.1494
      3 O          61.0863   86.7684   12.8919 O.2     1  UNL1       -0.1494
      4 N          62.2936   87.8279   11.5063 N.pl3   1  UNL1       -0.1665
      5 C          63.1104   88.8409   12.2524 C.ar    1  UNL1        0.0732
      6 C          63.7821   88.2310   13.4469 C.ar    1  UNL1        0.0163
      7 C          64.6495   89.0758   14.3322 C.ar    1  UNL1        0.0013
      8 C          64.8452   90.5306   14.0231 C.ar    1  UNL1       -0.0001
      9 C          64.1734   91.1404   12.8286 C.ar    1  UNL1        0.0006
     10 C          63.3060   90.2956   11.9433 C.ar    1  UNL1        0.0364
     11 C          62.7332   91.0965   10.8117 C.3     1  UNL1        0.2333
     12 O          61.8233   90.6406    9.7098 O.3     1  UNL1       -0.4692
     13 C          61.2615   89.2711    9.4673 C.ar    1  UNL1        0.1564
     14 C          60.3900   89.2445    8.2468 C.ar    1  UNL1        0.0679
     15 C          59.7277   87.9661    7.8257 C.ar    1  UNL1        0.1433
     16 F          58.8562   87.9396    6.6052 F       1  UNL1       -0.2041
     17 C          59.9370   86.7144    8.6252 C.ar    1  UNL1        0.0312
     18 C          60.8085   86.7409    9.8458 C.ar    1  UNL1        0.0219
     19 C          61.4708   88.0192   10.2668 C.ar    1  UNL1        0.1076
     20 C          62.9004   82.4243   10.4179 C.3     1  UNL1        0.0484
     21 C          62.8104   81.3105   11.4186 C.3     1  UNL1        0.1550
     22 C          63.0895   80.5207   10.1743 C.3     1  UNL1        0.0484
     23 O          62.8174   79.9224   11.9872 O.3     1  UNL1       -0.4612
     24 C          62.5765   79.7111   13.4526 C.2     1  UNL1        0.2333
     25 S          62.5835   78.3230   14.0212 S.2     1  UNL1        0.0061
     26 N          62.3286   80.8877   14.3494 N.am    1  UNL1       -0.2785
     27 C          62.3216   82.2757   13.7808 C.ar    1  UNL1        0.0501
     28 C          62.0737   83.4523   14.6775 C.ar    1  UNL1        0.0159
     29 C          62.0667   84.8403   14.1089 C.ar    1  UNL1        0.0215
     30 C          62.3076   85.0518   12.6435 C.ar    1  UNL1        0.1256
     31 C          62.5555   83.8751   11.7468 C.ar    1  UNL1        0.0205
     32 C          62.5625   82.4872   12.3154 C.ar    1  UNL1        0.0284
     33 H          62.1705   80.7489   15.3111 H       1  UNL1        0.1555
@<TRIPOS>BOND
     1    20    21    1
     2    21    22    1
     3    21    23    1
     4    23    24    1
     5    24    25    2
     6    24    26    1
     7    26    27    1
     8    27    28   ar
     9    28    29   ar
    10    29    30   ar
    11    30     1    1
    12     1     2    2
    13     1     3    2
    14     1     4    1
    15     4     5    1
    16     5     6   ar
    17     6     7   ar
    18     7     8   ar
    19     8     9   ar
    20     9    10   ar
    21    10    11    1
    22    11    12    1
    23    12    13    1
    24    13    14   ar
    25    14    15   ar
    26    15    16    1
    27    15    17   ar
    28    17    18   ar
    29    18    19   ar
    30    30    31   ar
    31    31    32   ar
    32    32    21    1
    33    32    27   ar
    34    19     4    1
    35    10     5   ar
    36    19    13   ar
    37    26    33    1
@<TRIPOS>MOLECULE
*****
 33 37 0 0 0
SMALL
GASTEIGER

@<TRIPOS>ATOM
      1 S          62.2475   86.4141   12.0143 S.O2    1  UNL1        0.0802
      2 O          61.0348   86.7364   12.8362 O.2     1  UNL1       -0.1494
      3 O          63.4603   86.0919   11.1924 O.2     1  UNL1       -0.1494
      4 N          62.2214   87.7969   11.4334 N.pl3   1  UNL1       -0.1665
      5 C          61.3932   87.9666   10.1943 C.ar    1  UNL1        0.0732
      6 C          60.7465   86.6762    9.7863 C.ar    1  UNL1        0.0163
      7 C          59.8726   86.6276    8.5682 C.ar    1  UNL1        0.0013
      8 C          59.6453   87.8694    7.7581 C.ar    1  UNL1       -0.0001
      9 C          60.2920   89.1598    8.1661 C.ar    1  UNL1        0.0006
     10 C          61.1659   89.2084    9.3842 C.ar    1  UNL1        0.0364
     11 C          61.7107   90.5872    9.6132 C.3     1  UNL1        0.2333
     12 O          62.6172   91.0646   10.7088 O.3     1  UNL1       -0.4692
     13 C          63.2029   90.2812   11.8460 C.ar    1  UNL1        0.1564
     14 C          64.0614   91.1450   12.7217 C.ar    1  UNL1        0.0679
     15 C          64.7438   90.5544   13.9199 C.ar    1  UNL1        0.1433
     16 F          65.6023   91.4182   14.7956 F       1  UNL1       -0.2041
     17 C          64.5676   89.1002   14.2424 C.ar    1  UNL1        0.0312
     18 C          63.7091   88.2364   13.3667 C.ar    1  UNL1        0.0219
     19 C          63.0267   88.8269   12.1686 C.ar    1  UNL1        0.1076
     20 C          62.8748   82.3902   10.3880 C.3     1  UNL1        0.0484
     21 C          62.8049   81.2846   11.3994 C.3     1  UNL1        0.1550
     22 C          63.0816   80.4866   10.1598 C.3     1  UNL1        0.0484
     23 O          62.8311   79.9019   11.9802 O.3     1  UNL1       -0.4612
     24 C          62.6048   79.7013   13.4494 C.2     1  UNL1        0.2333
     25 S          62.6310   78.3185   14.0303 S.2     1  UNL1        0.0061
     26 N          62.3523   80.8833   14.3378 N.am    1  UNL1       -0.2785
     27 C          62.3261   82.2660   13.7569 C.ar    1  UNL1        0.0501
     28 C          62.0737   83.4479   14.6452 C.ar    1  UNL1        0.0159
     29 C          62.0475   84.8307   14.0644 C.ar    1  UNL1        0.0215
     30 C          62.2737   85.0314   12.5951 C.ar    1  UNL1        0.1256
     31 C          62.5262   83.8494   11.7069 C.ar    1  UNL1        0.0205
     32 C          62.5524   82.4667   12.2877 C.ar    1  UNL1        0.0284
     33 H          62.2038   80.7515   15.3021 H       1  UNL1        0.1555
@<TRIPOS>BOND
     1    20    21    1
     2    21    22    1
     3    21    23    1
     4    23    24    1
     5    24    25    2
     6    24    26    1
     7    26    27    1
     8    27    28   ar
     9    28    29   ar
    10    29    30   ar
    11    30     1    1
    12     1     2    2
    13     1     3    2
    14     1     4    1
    15     4     5    1
    16     5     6   ar
    17     6     7   ar
    18     7     8   ar
    19     8     9   ar
    20     9    10   ar
    21    10    11    1
    22    11    12    1
    23    12    13    1
    24    13    14   ar
    25    14    15   ar
    26    15    16    1
    27    15    17   ar
    28    17    18   ar
    29    18    19   ar
    30    30    31   ar
    31    31    32   ar
    32    32    21    1
    33    32    27   ar
    34    19     4    1
    35    10     5   ar
    36    19    13   ar
    37    26    33    1
@<TRIPOS>MOLECULE
*****
 33 37 0 0 0
SMALL
GASTEIGER

@<TRIPOS>ATOM
      1 S          62.5380   85.9013   11.0839 S.O2    1  UNL1        0.0802
      2 O          63.3397   86.1527    9.8412 O.2     1  UNL1       -0.1494
      3 O          61.7364   85.6500   12.3265 O.2     1  UNL1       -0.1494
      4 N          62.3636   87.3794   11.2703 N.pl3   1  UNL1       -0.1665
      5 C          63.0527   87.9705   12.4645 C.ar    1  UNL1        0.0732
      6 C          63.7934   86.9242   13.2433 C.ar    1  UNL1        0.0163
      7 C          64.5530   87.3066   14.4789 C.ar    1  UNL1        0.0013
      8 C          64.5718   88.7353   14.9357 C.ar    1  UNL1       -0.0001
      9 C          63.8311   89.7815   14.1568 C.ar    1  UNL1        0.0006
     10 C          63.0715   89.3991   12.9213 C.ar    1  UNL1        0.0364
     11 C          62.4060   90.5895   12.2967 C.3     1  UNL1        0.2333
     12 O          61.5573   90.6453   11.0611 O.3     1  UNL1       -0.4692
     13 C          61.1644   89.5244   10.1450 C.ar    1  UNL1        0.1564
     14 C          60.3020   90.0134    9.0193 C.ar    1  UNL1        0.0679
     15 C          59.7985   89.0489    7.9867 C.ar    1  UNL1        0.1433
     16 F          58.9361   89.5379    6.8610 F       1  UNL1       -0.2041
     17 C          60.1573   87.5955    8.0798 C.ar    1  UNL1        0.0312
     18 C          61.0197   87.1065    9.2055 C.ar    1  UNL1        0.0219
     19 C          61.5233   88.0709   10.2381 C.ar    1  UNL1        0.1076
     20 C          61.7575   82.3616   13.5518 C.3     1  UNL1        0.0484
     21 C          62.1093   81.0541   12.9062 C.3     1  UNL1        0.1550
     22 C          61.5984   80.5627   14.2281 C.3     1  UNL1        0.0484
     23 O          62.2837   79.5760   12.7197 O.3     1  UNL1       -0.4612
     24 C          62.8469   79.0434   11.4355 C.2     1  UNL1        0.2333
     25 S          63.0213   77.5653   11.2490 S.2     1  UNL1        0.0061
     26 N          63.2356   79.9889   10.3378 N.am    1  UNL1       -0.2785
     27 C          63.0612   81.4670   10.5243 C.ar    1  UNL1        0.0501
     28 C          63.4500   82.4124    9.4266 C.ar    1  UNL1        0.0159
     29 C          63.2756   83.8905    9.6131 C.ar    1  UNL1        0.0215
     30 C          62.7124   84.4232   10.8974 C.ar    1  UNL1        0.1256
     31 C          62.3237   83.4777   11.9950 C.ar    1  UNL1        0.0205
     32 C          62.4981   81.9996   11.8085 C.ar    1  UNL1        0.0284
     33 H          63.6052   79.6393    9.4949 H       1  UNL1        0.1555
@<TRIPOS>BOND
     1    20    21    1
     2    21    22    1
     3    21    23    1
     4    23    24    1
     5    24    25    2
     6    24    26    1
     7    26    27    1
     8    27    28   ar
     9    28    29   ar
    10    29    30   ar
    11    30     1    1
    12     1     2    2
    13     1     3    2
    14     1     4    1
    15     4     5    1
    16     5     6   ar
    17     6     7   ar
    18     7     8   ar
    19     8     9   ar
    20     9    10   ar
    21    10    11    1
    22    11    12    1
    23    12    13    1
    24    13    14   ar
    25    14    15   ar
    26    15    16    1
    27    15    17   ar
    28    17    18   ar
    29    18    19   ar
    30    30    31   ar
    31    31    32   ar
    32    32    21    1
    33    32    27   ar
    34    19     4    1
    35    10     5   ar
    36    19    13   ar
    37    26    33    1
