@<TRIPOS>MOLECULE
*****
 16 17 0 0 0
SMALL
GASTEIGER

@<TRIPOS>ATOM
      1 C          63.7073   83.7755   10.8326 C.ar    1  UNL1        0.1386
      2 C          63.7532   84.0211    9.3536 C.ar    1  UNL1        0.0370
      3 C          62.8539   85.0506    8.7361 C.ar    1  UNL1        0.0062
      4 C          61.9087   85.8345    9.5976 C.ar    1  UNL1        0.0374
      5 C          61.8628   85.5888   11.0766 C.ar    1  UNL1        0.0062
      6 C          62.7621   84.5593   11.6941 C.ar    1  UNL1        0.0370
      7 C          61.0094   86.8640    8.9800 C.ar    1  UNL1        0.1769
      8 C          59.9280   86.6008    7.9744 C.ar    1  UNL1        0.0642
      9 C          59.2838   87.9116    7.6326 C.ar    1  UNL1        0.1438
     10 N          59.9671   88.9849    8.4269 N.ar    1  UNL1       -0.0753
     11 O          61.0336   88.3375    9.2596 O.2     1  UNL1       -0.3533
     12 O          64.6066   82.7460   11.4502 O.3     1  UNL1       -0.4755
     13 C          64.0920   81.8614   12.5468 C.3     1  UNL1        0.2054
     14 C          62.9659   80.9083   12.2754 C.3     1  UNL1        0.0473
     15 C          61.1456   81.0490   14.1238 C.3     1  UNL1        0.0001
     16 C          62.2229   80.2806   13.4173 C.3     1  UNL1        0.0038
@<TRIPOS>BOND
     1    15    16    1
     2    16    14    1
     3    14    13    1
     4    13    12    1
     5    12     1    1
     6     1     2   ar
     7     2     3   ar
     8     3     4   ar
     9     4     7    1
    10     7     8   ar
    11     8     9   ar
    12     9    10   ar
    13    10    11   ar
    14     4     5   ar
    15     5     6   ar
    16     6     1   ar
    17    11     7   ar
@<TRIPOS>MOLECULE
*****
 16 17 0 0 0
SMALL
GASTEIGER

@<TRIPOS>ATOM
      1 C          63.4980   84.0154   10.8683 C.ar    1  UNL1        0.1386
      2 C          63.6490   84.2873    9.4009 C.ar    1  UNL1        0.0370
      3 C          62.7642   85.2957    8.7300 C.ar    1  UNL1        0.0062
      4 C          61.7284   86.0324    9.5265 C.ar    1  UNL1        0.0374
      5 C          61.5774   85.7605   10.9939 C.ar    1  UNL1        0.0062
      6 C          62.4622   84.7521   11.6648 C.ar    1  UNL1        0.0370
      7 C          60.8436   87.0408    8.8556 C.ar    1  UNL1        0.1769
      8 C          59.7565   86.7406    7.8666 C.ar    1  UNL1        0.0642
      9 C          59.1316   88.0408    7.4556 C.ar    1  UNL1        0.1438
     10 N          59.8324   89.1447    8.1907 N.ar    1  UNL1       -0.0753
     11 O          60.8904   88.5266    9.0559 O.2     1  UNL1       -0.3533
     12 O          64.3828   83.0070   11.5392 O.3     1  UNL1       -0.4755
     13 C          63.9816   82.4171   12.8586 C.3     1  UNL1        0.2054
     14 C          64.0268   83.2571   14.1006 C.3     1  UNL1        0.0473
     15 C          64.7058   85.6289   14.9152 C.3     1  UNL1        0.0001
     16 C          65.0581   84.3377   14.2379 C.3     1  UNL1        0.0038
@<TRIPOS>BOND
     1    15    16    1
     2    16    14    1
     3    14    13    1
     4    13    12    1
     5    12     1    1
     6     1     2   ar
     7     2     3   ar
     8     3     4   ar
     9     4     7    1
    10     7     8   ar
    11     8     9   ar
    12     9    10   ar
    13    10    11   ar
    14     4     5   ar
    15     5     6   ar
    16     6     1   ar
    17    11     7   ar
@<TRIPOS>MOLECULE
*****
 16 17 0 0 0
SMALL
GASTEIGER

@<TRIPOS>ATOM
      1 C          63.2616   84.0810   10.1954 C.ar    1  UNL1        0.1386
      2 C          63.1120   84.8860    8.9386 C.ar    1  UNL1        0.0370
      3 C          62.5665   86.2818    9.0025 C.ar    1  UNL1        0.0062
      4 C          62.1707   86.8727   10.3231 C.ar    1  UNL1        0.0374
      5 C          62.3204   86.0678   11.5799 C.ar    1  UNL1        0.0062
      6 C          62.8658   84.6719   11.5161 C.ar    1  UNL1        0.0370
      7 C          61.6253   88.2686   10.3870 C.ar    1  UNL1        0.1769
      8 C          60.1879   88.6622   10.2162 C.ar    1  UNL1        0.0642
      9 C          60.0957   90.1528   10.3565 C.ar    1  UNL1        0.1438
     10 N          61.4760   90.6804   10.6139 N.ar    1  UNL1       -0.0753
     11 O          62.4213   89.5159   10.6328 O.2     1  UNL1       -0.3533
     12 O          63.8071   82.6852   10.1316 O.3     1  UNL1       -0.4755
     13 C          64.0115   81.9014   11.3940 C.3     1  UNL1        0.2054
     14 C          62.8591   81.1729   12.0195 C.3     1  UNL1        0.0473
     15 C          61.1652   80.9636   13.9783 C.3     1  UNL1        0.0001
     16 C          62.4776   81.4541   13.4427 C.3     1  UNL1        0.0038
@<TRIPOS>BOND
     1    15    16    1
     2    16    14    1
     3    14    13    1
     4    13    12    1
     5    12     1    1
     6     1     2   ar
     7     2     3   ar
     8     3     4   ar
     9     4     7    1
    10     7     8   ar
    11     8     9   ar
    12     9    10   ar
    13    10    11   ar
    14     4     5   ar
    15     5     6   ar
    16     6     1   ar
    17    11     7   ar
@<TRIPOS>MOLECULE
*****
 16 17 0 0 0
SMALL
GASTEIGER

@<TRIPOS>ATOM
      1 C          62.9839   86.9016   12.2535 C.ar    1  UNL1        0.1386
      2 C          62.7029   88.2931   11.7690 C.ar    1  UNL1        0.0370
      3 C          63.1875   89.4738   12.5571 C.ar    1  UNL1        0.0062
      4 C          63.9530   89.2630   13.8297 C.ar    1  UNL1        0.0374
      5 C          64.2339   87.8715   14.3142 C.ar    1  UNL1        0.0062
      6 C          63.7494   86.6908   13.5261 C.ar    1  UNL1        0.0370
      7 C          64.4376   90.4437   14.6179 C.ar    1  UNL1        0.1769
      8 C          65.7897   91.0835   14.5061 C.ar    1  UNL1        0.0642
      9 C          65.8429   92.2271   15.4753 C.ar    1  UNL1        0.1438
     10 N          64.5237   92.2941   16.1861 N.ar    1  UNL1       -0.0753
     11 O          63.6552   91.1919   15.6561 O.2     1  UNL1       -0.3533
     12 O          62.4993   85.7209   11.4653 O.3     1  UNL1       -0.4755
     13 C          61.8559   85.9262   10.1260 C.3     1  UNL1        0.2054
     14 C          62.7075   86.1253    8.9074 C.3     1  UNL1        0.0473
     15 C          61.8484   84.8141    6.8355 C.3     1  UNL1        0.0001
     16 C          62.8701   85.0115    7.9159 C.3     1  UNL1        0.0038
@<TRIPOS>BOND
     1    15    16    1
     2    16    14    1
     3    14    13    1
     4    13    12    1
     5    12     1    1
     6     1     2   ar
     7     2     3   ar
     8     3     4   ar
     9     4     7    1
    10     7     8   ar
    11     8     9   ar
    12     9    10   ar
    13    10    11   ar
    14     4     5   ar
    15     5     6   ar
    16     6     1   ar
    17    11     7   ar
@<TRIPOS>MOLECULE
*****
 16 17 0 0 0
SMALL
GASTEIGER

@<TRIPOS>ATOM
      1 C          63.2149   85.8388   12.6426 C.ar    1  UNL1        0.1386
      2 C          62.4386   84.9390   11.7274 C.ar    1  UNL1        0.0370
      3 C          61.6078   85.5264   10.6253 C.ar    1  UNL1        0.0062
      4 C          61.5534   87.0137   10.4383 C.ar    1  UNL1        0.0374
      5 C          62.3297   87.9135   11.3534 C.ar    1  UNL1        0.0062
      6 C          63.1605   87.3261   12.4556 C.ar    1  UNL1        0.0370
      7 C          60.7226   87.6011    9.3361 C.ar    1  UNL1        0.1769
      8 C          59.7482   86.8555    8.4732 C.ar    1  UNL1        0.0642
      9 C          59.1437   87.8308    7.5072 C.ar    1  UNL1        0.1438
     10 N          59.7445   89.1793    7.7730 N.ar    1  UNL1       -0.0753
     11 O          60.7203   89.0373    8.9033 O.2     1  UNL1       -0.3533
     12 O          64.0457   85.2514   13.7447 O.3     1  UNL1       -0.4755
     13 C          64.0707   83.7665   13.9552 C.3     1  UNL1        0.2054
     14 C          63.0599   83.1195   14.8551 C.3     1  UNL1        0.0473
     15 C          62.3753   81.4545   12.9818 C.3     1  UNL1        0.0001
     16 C          62.0943   82.1154   14.2987 C.3     1  UNL1        0.0038
@<TRIPOS>BOND
     1    15    16    1
     2    16    14    1
     3    14    13    1
     4    13    12    1
     5    12     1    1
     6     1     2   ar
     7     2     3   ar
     8     3     4   ar
     9     4     7    1
    10     7     8   ar
    11     8     9   ar
    12     9    10   ar
    13    10    11   ar
    14     4     5   ar
    15     5     6   ar
    16     6     1   ar
    17    11     7   ar
@<TRIPOS>MOLECULE
*****
 16 17 0 0 0
SMALL
GASTEIGER

@<TRIPOS>ATOM
      1 C          63.3171   87.0460   12.7880 C.ar    1  UNL1        0.1386
      2 C          62.6942   85.7987   12.2345 C.ar    1  UNL1        0.0370
      3 C          61.7768   85.8803   11.0506 C.ar    1  UNL1        0.0062
      4 C          61.4822   87.2091   10.4202 C.ar    1  UNL1        0.0374
      5 C          62.1050   88.4563   10.9736 C.ar    1  UNL1        0.0062
      6 C          63.0225   88.3748   12.1575 C.ar    1  UNL1        0.0370
      7 C          60.5647   87.2906    9.2363 C.ar    1  UNL1        0.1769
      8 C          60.0830   88.5500    8.5792 C.ar    1  UNL1        0.0642
      9 C          59.1885   88.1648    7.4384 C.ar    1  UNL1        0.1438
     10 N          59.1173   86.6673    7.3904 N.ar    1  UNL1       -0.0753
     11 O          59.9678   86.1270    8.5016 O.2     1  UNL1       -0.3533
     12 O          64.2345   86.9644   13.9719 O.3     1  UNL1       -0.4755
     13 C          64.3854   85.6709   14.7161 C.3     1  UNL1        0.2054
     14 C          63.7632   85.5083   16.0713 C.3     1  UNL1        0.0473
     15 C          62.7144   86.5882   18.1888 C.3     1  UNL1        0.0001
     16 C          63.1239   86.6840   16.7490 C.3     1  UNL1        0.0038
@<TRIPOS>BOND
     1    15    16    1
     2    16    14    1
     3    14    13    1
     4    13    12    1
     5    12     1    1
     6     1     2   ar
     7     2     3   ar
     8     3     4   ar
     9     4     7    1
    10     7     8   ar
    11     8     9   ar
    12     9    10   ar
    13    10    11   ar
    14     4     5   ar
    15     5     6   ar
    16     6     1   ar
    17    11     7   ar
@<TRIPOS>MOLECULE
*****
 16 17 0 0 0
SMALL
GASTEIGER

@<TRIPOS>ATOM
      1 C          62.7825   85.1015   12.0639 C.ar    1  UNL1        0.1386
      2 C          62.3166   86.2912   11.2781 C.ar    1  UNL1        0.0370
      3 C          62.6739   87.6758   11.7308 C.ar    1  UNL1        0.0062
      4 C          63.4970   87.8709   12.9695 C.ar    1  UNL1        0.0374
      5 C          63.9630   86.6813   13.7554 C.ar    1  UNL1        0.0062
      6 C          63.6057   85.2966   13.3026 C.ar    1  UNL1        0.0370
      7 C          63.8543   89.2556   13.4223 C.ar    1  UNL1        0.1769
      8 C          64.6754   89.6046   14.6281 C.ar    1  UNL1        0.0642
      9 C          64.7817   91.0991   14.6998 C.ar    1  UNL1        0.1438
     10 N          64.0263   91.6738   13.5383 N.ar    1  UNL1       -0.0753
     11 O          63.4531   90.5344   12.7487 O.2     1  UNL1       -0.3533
     12 O          62.4253   83.7168   11.6112 O.3     1  UNL1       -0.4755
     13 C          62.8867   82.5274   12.4000 C.3     1  UNL1        0.2054
     14 C          62.1768   82.1450   13.6648 C.3     1  UNL1        0.0473
     15 C          60.1909   80.5477   14.1697 C.3     1  UNL1        0.0001
     16 C          61.6375   80.7552   13.8314 C.3     1  UNL1        0.0038
@<TRIPOS>BOND
     1    15    16    1
     2    16    14    1
     3    14    13    1
     4    13    12    1
     5    12     1    1
     6     1     2   ar
     7     2     3   ar
     8     3     4   ar
     9     4     7    1
    10     7     8   ar
    11     8     9   ar
    12     9    10   ar
    13    10    11   ar
    14     4     5   ar
    15     5     6   ar
    16     6     1   ar
    17    11     7   ar
@<TRIPOS>MOLECULE
*****
 16 17 0 0 0
SMALL
GASTEIGER

@<TRIPOS>ATOM
      1 C          63.8512   84.9573   13.6818 C.ar    1  UNL1        0.1386
      2 C          63.0157   84.7127   12.4602 C.ar    1  UNL1        0.0370
      3 C          62.5074   85.8715   11.6549 C.ar    1  UNL1        0.0062
      4 C          62.8346   87.2750   12.0710 C.ar    1  UNL1        0.0374
      5 C          63.6700   87.5196   13.2925 C.ar    1  UNL1        0.0062
      6 C          64.1783   86.3607   14.0979 C.ar    1  UNL1        0.0370
      7 C          62.3263   88.4339   11.2656 C.ar    1  UNL1        0.1769
      8 C          62.8648   89.8335   11.2975 C.ar    1  UNL1        0.0642
      9 C          62.0615   90.6612   10.3385 C.ar    1  UNL1        0.1438
     10 N          61.0265   89.7732    9.7140 N.ar    1  UNL1       -0.0753
     11 O          61.1901   88.3966   10.2869 O.2     1  UNL1       -0.3533
     12 O          64.3595   83.7984   14.4871 O.3     1  UNL1       -0.4755
     13 C          63.7408   82.4419   14.3226 C.3     1  UNL1        0.2054
     14 C          62.2606   82.2673   14.4914 C.3     1  UNL1        0.0473
     15 C          62.2845   79.9854   13.2494 C.3     1  UNL1        0.0001
     16 C          61.5397   81.1966   13.7271 C.3     1  UNL1        0.0038
@<TRIPOS>BOND
     1    15    16    1
     2    16    14    1
     3    14    13    1
     4    13    12    1
     5    12     1    1
     6     1     2   ar
     7     2     3   ar
     8     3     4   ar
     9     4     7    1
    10     7     8   ar
    11     8     9   ar
    12     9    10   ar
    13    10    11   ar
    14     4     5   ar
    15     5     6   ar
    16     6     1   ar
    17    11     7   ar
@<TRIPOS>MOLECULE
*****
 16 17 0 0 0
SMALL
GASTEIGER

@<TRIPOS>ATOM
      1 C          61.7551   94.4274    0.1122 C.ar    1  UNL1        0.1386
      2 C          61.7250   93.9796   -1.3190 C.ar    1  UNL1        0.0370
      3 C          60.4618   93.4203   -1.9035 C.ar    1  UNL1        0.0062
      4 C          59.2287   93.3089   -1.0567 C.ar    1  UNL1        0.0374
      5 C          59.2588   93.7568    0.3745 C.ar    1  UNL1        0.0062
      6 C          60.5220   94.3161    0.9589 C.ar    1  UNL1        0.0370
      7 C          57.9655   92.7496   -1.6412 C.ar    1  UNL1        0.1769
      8 C          57.7553   92.3563   -3.0734 C.ar    1  UNL1        0.0642
      9 C          56.3507   91.8491   -3.2134 C.ar    1  UNL1        0.1438
     10 N          55.6927   91.9289   -1.8678 N.ar    1  UNL1       -0.0753
     11 O          56.6907   92.4855   -0.8962 O.2     1  UNL1       -0.3533
     12 O          63.0182   94.9867    0.6967 O.3     1  UNL1       -0.4755
     13 C          63.7192   94.2576    1.8043 C.3     1  UNL1        0.2054
     14 C          63.8558   92.7648    1.7508 C.3     1  UNL1        0.0473
     15 C          63.5280   90.7034    3.2979 C.3     1  UNL1        0.0001
     16 C          62.9633   91.8994    2.5902 C.3     1  UNL1        0.0038
@<TRIPOS>BOND
     1    15    16    1
     2    16    14    1
     3    14    13    1
     4    13    12    1
     5    12     1    1
     6     1     2   ar
     7     2     3   ar
     8     3     4   ar
     9     4     7    1
    10     7     8   ar
    11     8     9   ar
    12     9    10   ar
    13    10    11   ar
    14     4     5   ar
    15     5     6   ar
    16     6     1   ar
    17    11     7   ar
