@<TRIPOS>MOLECULE
*****
 34 38 0 0 0
SMALL
GASTEIGER

@<TRIPOS>ATOM
      1 C          59.2324   86.7178    8.0177 C.3     1  UNL1        0.0339
      2 C          59.9462   87.4293    9.1287 C.3     1  UNL1        0.1351
      3 C          60.9921   86.7114    9.9291 C.3     1  UNL1        0.1231
      4 N          61.7059   87.4229   11.0401 N.am    1  UNL1       -0.2724
      5 C          62.7519   86.7050   11.8405 C.2     1  UNL1        0.2507
      6 O          63.4656   87.4165   12.9515 O.2     1  UNL1       -0.2698
      7 C          61.3736   88.8523   11.3508 C.3     1  UNL1        0.1097
      8 C          60.3276   89.5701   10.5504 C.3     1  UNL1        0.1621
      9 O          59.6139   88.8586    9.4394 O.3     1  UNL1       -0.3527
     10 C          63.0841   85.2757   11.5298 C.ar    1  UNL1        0.0738
     11 C          63.2040   84.8264   10.1037 C.ar    1  UNL1        0.0061
     12 C          63.5363   83.3970    9.7930 C.ar    1  UNL1        0.0011
     13 C          63.7486   82.4169   10.9085 C.ar    1  UNL1        0.0130
     14 C          63.6287   82.8662   12.3346 C.ar    1  UNL1        0.0771
     15 CL         63.8411   81.8861   13.4500 Cl      1  UNL1       -0.0806
     16 C          63.2965   84.2955   12.6453 C.ar    1  UNL1        0.1177
     17 N          63.1766   84.7447   14.0714 N.ar    1  UNL1       -0.1468
     18 N          61.9298   84.7103   14.9048 N.ar    1  UNL1       -0.1447
     19 C          62.2651   85.2516   16.2630 C.ar    1  UNL1        0.1446
     20 C          63.7190   85.6205   16.2690 C.ar    1  UNL1        0.1446
     21 N          64.2823   85.3073   14.9145 N.ar    1  UNL1       -0.1447
     22 C          62.0873   89.5638   12.4618 C.3     1  UNL1        0.0510
     23 C          63.1998   90.5196   12.1476 C.ar    1  UNL1        0.0086
     24 C          64.1739   90.9147   13.2178 C.ar    1  UNL1        0.0189
     25 C          65.2863   91.8705   12.9036 C.ar    1  UNL1        0.1027
     26 C          65.4248   92.4313   11.5193 C.ar    1  UNL1        0.0232
     27 C          64.4508   92.0363   10.4491 C.ar    1  UNL1        0.0309
     28 C          63.3383   91.0804   10.7633 C.ar    1  UNL1        0.1363
     29 F          62.3643   90.6854    9.6932 F       1  UNL1       -0.2045
     30 N          66.2604   92.2656   13.9738 N.ar    1  UNL1       -0.1478
     31 N          65.9126   92.6858   15.3710 N.ar    1  UNL1       -0.1447
     32 C          67.1905   92.9897   16.0953 C.ar    1  UNL1        0.1446
     33 C          68.3281   92.7574   15.1456 C.ar    1  UNL1        0.1446
     34 N          67.7532   92.3098   13.8343 N.ar    1  UNL1       -0.1447
@<TRIPOS>BOND
     1     2     1    1
     2     2     3    1
     3     3     4    1
     4     4     5   am
     5     5     6    2
     6     5    10    1
     7    10    11   ar
     8    11    12   ar
     9    12    13   ar
    10    13    14   ar
    11    14    15    1
    12    14    16   ar
    13    16    17    1
    14    17    18   ar
    15    18    19   ar
    16    19    20   ar
    17    20    21   ar
    18     4     7    1
    19     7    22    1
    20    22    23    1
    21    23    24   ar
    22    24    25   ar
    23    25    30    1
    24    30    31   ar
    25    31    32   ar
    26    32    33   ar
    27    33    34   ar
    28    25    26   ar
    29    26    27   ar
    30    27    28   ar
    31    28    29    1
    32     7     8    1
    33     8     9    1
    34     9     2    1
    35    16    10   ar
    36    21    17   ar
    37    28    23   ar
    38    34    30   ar
@<TRIPOS>MOLECULE
*****
 34 38 0 0 0
SMALL
GASTEIGER

@<TRIPOS>ATOM
      1 C          59.9367   88.8176    7.9209 C.3     1  UNL1        0.0339
      2 C          60.5780   89.0872    9.2498 C.3     1  UNL1        0.1351
      3 C          61.3797   88.0154    9.9269 C.3     1  UNL1        0.1231
      4 N          62.0210   88.2850   11.2558 N.am    1  UNL1       -0.2724
      5 C          62.8228   87.2132   11.9329 C.2     1  UNL1        0.2507
      6 O          63.4641   87.4828   13.2619 O.2     1  UNL1       -0.2698
      7 C          61.8606   89.6264   11.9077 C.3     1  UNL1        0.1097
      8 C          61.0588   90.6981   11.2306 C.3     1  UNL1        0.1621
      9 O          60.4175   90.4285    9.9017 O.3     1  UNL1       -0.3527
     10 C          62.9832   85.8718   11.2811 C.ar    1  UNL1        0.0738
     11 C          62.9521   85.7560    9.7859 C.ar    1  UNL1        0.0061
     12 C          63.1126   84.4145    9.1341 C.ar    1  UNL1        0.0011
     13 C          63.3041   83.1890    9.9774 C.ar    1  UNL1        0.0130
     14 C          63.3353   83.3048   11.4726 C.ar    1  UNL1        0.0771
     15 CL         63.5268   82.0793   12.3160 Cl      1  UNL1       -0.0806
     16 C          63.1748   84.6462   12.1245 C.ar    1  UNL1        0.1177
     17 N          63.2059   84.7620   13.6197 N.ar    1  UNL1       -0.1468
     18 N          62.0250   84.6483   14.5376 N.ar    1  UNL1       -0.1447
     19 C          62.5127   84.8279   15.9447 C.ar    1  UNL1        0.1446
     20 C          63.9950   85.0525   15.8964 C.ar    1  UNL1        0.1446
     21 N          64.4234   85.0118   14.4595 N.ar    1  UNL1       -0.1447
     22 C          62.5019   89.8960   13.2366 C.3     1  UNL1        0.0510
     23 C          63.8271   90.5956   13.3017 C.ar    1  UNL1        0.0086
     24 C          64.2662   91.4772   12.1703 C.ar    1  UNL1        0.0189
     25 C          65.5915   92.1768   12.2354 C.ar    1  UNL1        0.1027
     26 C          66.4777   91.9947   13.4319 C.ar    1  UNL1        0.0232
     27 C          66.0386   91.1131   14.5632 C.ar    1  UNL1        0.0309
     28 C          64.7133   90.4135   14.4982 C.ar    1  UNL1        0.1363
     29 F          64.2743   89.5319   15.6295 F       1  UNL1       -0.2045
     30 N          66.0306   93.0584   11.1041 N.ar    1  UNL1       -0.1478
     31 N          65.5137   94.4348   10.8070 N.ar    1  UNL1       -0.1447
     32 C          66.2273   94.9455    9.5905 C.ar    1  UNL1        0.1446
     33 C          67.1853   93.8846    9.1356 C.ar    1  UNL1        0.1446
     34 N          67.0637   92.7183   10.0711 N.ar    1  UNL1       -0.1447
@<TRIPOS>BOND
     1     2     1    1
     2     2     3    1
     3     3     4    1
     4     4     5   am
     5     5     6    2
     6     5    10    1
     7    10    11   ar
     8    11    12   ar
     9    12    13   ar
    10    13    14   ar
    11    14    15    1
    12    14    16   ar
    13    16    17    1
    14    17    18   ar
    15    18    19   ar
    16    19    20   ar
    17    20    21   ar
    18     4     7    1
    19     7    22    1
    20    22    23    1
    21    23    24   ar
    22    24    25   ar
    23    25    30    1
    24    30    31   ar
    25    31    32   ar
    26    32    33   ar
    27    33    34   ar
    28    25    26   ar
    29    26    27   ar
    30    27    28   ar
    31    28    29    1
    32     7     8    1
    33     8     9    1
    34     9     2    1
    35    16    10   ar
    36    21    17   ar
    37    28    23   ar
    38    34    30   ar
@<TRIPOS>MOLECULE
*****
 34 38 0 0 0
SMALL
GASTEIGER

@<TRIPOS>ATOM
      1 C          64.3126   84.3702   13.9828 C.3     1  UNL1        0.0339
      2 C          64.1735   85.8633   13.9466 C.3     1  UNL1        0.1351
      3 C          63.4924   86.5252   12.7857 C.3     1  UNL1        0.1231
      4 N          63.3534   88.0183   12.7495 N.am    1  UNL1       -0.2724
      5 C          62.6722   88.6802   11.5884 C.2     1  UNL1        0.2507
      6 O          62.5331   90.1733   11.5523 O.2     1  UNL1       -0.2698
      7 C          63.8955   88.8495   13.8743 C.3     1  UNL1        0.1097
      8 C          64.5766   88.1876   15.0352 C.3     1  UNL1        0.1621
      9 O          64.7156   86.6945   15.0714 O.3     1  UNL1       -0.3527
     10 C          62.1300   87.8490   10.4637 C.ar    1  UNL1        0.0738
     11 C          63.0324   86.9042    9.7267 C.ar    1  UNL1        0.0061
     12 C          62.4902   86.0730    8.6019 C.ar    1  UNL1        0.0011
     13 C          61.0457   86.1866    8.2141 C.ar    1  UNL1        0.0130
     14 C          60.1433   87.1313    8.9510 C.ar    1  UNL1        0.0771
     15 CL         58.6988   87.2449    8.5633 Cl      1  UNL1       -0.0806
     16 C          60.6855   87.9625   10.0758 C.ar    1  UNL1        0.1177
     17 N          59.7831   88.9072   10.8128 N.ar    1  UNL1       -0.1468
     18 N          58.9371   88.5694   12.0046 N.ar    1  UNL1       -0.1447
     19 C          58.1994   89.8091   12.4157 C.ar    1  UNL1        0.1446
     20 C          58.5894   90.9131   11.4781 C.ar    1  UNL1        0.1446
     21 N          59.5681   90.3557   10.4874 N.ar    1  UNL1       -0.1447
     22 C          63.7564   90.3426   13.8381 C.3     1  UNL1        0.0510
     23 C          64.9803   91.2097   13.8244 C.ar    1  UNL1        0.0086
     24 C          65.6224   91.5803   12.5203 C.ar    1  UNL1        0.0189
     25 C          66.8462   92.4474   12.5066 C.ar    1  UNL1        0.1027
     26 C          67.4281   92.9439   13.7969 C.ar    1  UNL1        0.0232
     27 C          66.7862   92.5733   15.1009 C.ar    1  UNL1        0.0309
     28 C          65.5622   91.7062   15.1147 C.ar    1  UNL1        0.1363
     29 F          64.9202   91.3356   16.4187 F       1  UNL1       -0.2045
     30 N          67.4883   92.8180   11.2026 N.ar    1  UNL1       -0.1478
     31 N          67.2919   94.1050   10.4574 N.ar    1  UNL1       -0.1447
     32 C          68.1217   94.0491    9.2091 C.ar    1  UNL1        0.1446
     33 C          68.8309   92.7275    9.1827 C.ar    1  UNL1        0.1446
     34 N          68.4394   91.9667   10.4148 N.ar    1  UNL1       -0.1447
@<TRIPOS>BOND
     1     2     1    1
     2     2     3    1
     3     3     4    1
     4     4     5   am
     5     5     6    2
     6     5    10    1
     7    10    11   ar
     8    11    12   ar
     9    12    13   ar
    10    13    14   ar
    11    14    15    1
    12    14    16   ar
    13    16    17    1
    14    17    18   ar
    15    18    19   ar
    16    19    20   ar
    17    20    21   ar
    18     4     7    1
    19     7    22    1
    20    22    23    1
    21    23    24   ar
    22    24    25   ar
    23    25    30    1
    24    30    31   ar
    25    31    32   ar
    26    32    33   ar
    27    33    34   ar
    28    25    26   ar
    29    26    27   ar
    30    27    28   ar
    31    28    29    1
    32     7     8    1
    33     8     9    1
    34     9     2    1
    35    16    10   ar
    36    21    17   ar
    37    28    23   ar
    38    34    30   ar
@<TRIPOS>MOLECULE
*****
 34 38 0 0 0
SMALL
GASTEIGER

@<TRIPOS>ATOM
      1 C          62.8699   83.7673   13.9521 C.3     1  UNL1        0.0339
      2 C          63.2299   85.2113   13.7642 C.3     1  UNL1        0.1351
      3 C          62.8489   85.9207   12.4987 C.3     1  UNL1        0.1231
      4 N          63.2090   87.3647   12.3108 N.am    1  UNL1       -0.2724
      5 C          62.8279   88.0742   11.0453 C.2     1  UNL1        0.2507
      6 O          63.1880   89.5181   10.8574 O.2     1  UNL1       -0.2698
      7 C          63.9500   88.0992   13.3884 C.3     1  UNL1        0.1097
      8 C          64.3311   87.3898   14.6539 C.3     1  UNL1        0.1621
      9 O          63.9710   85.9458   14.8418 O.3     1  UNL1       -0.3527
     10 C          62.0868   87.3396    9.9677 C.ar    1  UNL1        0.0738
     11 C          62.7975   86.3161    9.1327 C.ar    1  UNL1        0.0061
     12 C          62.0563   85.5815    8.0550 C.ar    1  UNL1        0.0011
     13 C          60.6046   85.8706    7.8125 C.ar    1  UNL1        0.0130
     14 C          59.8939   86.8942    8.6475 C.ar    1  UNL1        0.0771
     15 CL         58.4422   87.1833    8.4049 Cl      1  UNL1       -0.0806
     16 C          60.6350   87.6287    9.7251 C.ar    1  UNL1        0.1177
     17 N          59.9244   88.6523   10.5601 N.ar    1  UNL1       -0.1468
     18 N          59.2137   88.3941   11.8556 N.ar    1  UNL1       -0.1447
     19 C          58.6497   89.6961   12.3424 C.ar    1  UNL1        0.1446
     20 C          59.0118   90.7589   11.3477 C.ar    1  UNL1        0.1446
     21 N          59.7996   90.1138   10.2462 N.ar    1  UNL1       -0.1447
     22 C          64.3101   89.5432   13.2005 C.3     1  UNL1        0.0510
     23 C          64.5700   90.4129   14.3947 C.ar    1  UNL1        0.0086
     24 C          65.8793   91.1327   14.5276 C.ar    1  UNL1        0.0189
     25 C          66.1392   92.0024   15.7218 C.ar    1  UNL1        0.1027
     26 C          65.0898   92.1523   16.7831 C.ar    1  UNL1        0.0232
     27 C          63.7805   91.4325   16.6502 C.ar    1  UNL1        0.0309
     28 C          63.5206   90.5628   15.4560 C.ar    1  UNL1        0.1363
     29 F          62.2113   89.8430   15.3231 F       1  UNL1       -0.2045
     30 N          67.4485   92.7222   15.8547 N.ar    1  UNL1       -0.1478
     31 N          68.7632   92.1004   16.2219 N.ar    1  UNL1       -0.1447
     32 C          69.8002   93.1841   16.2379 C.ar    1  UNL1        0.1446
     33 C          69.1263   94.4758   15.8806 C.ar    1  UNL1        0.1446
     34 N          67.6728   94.1903   15.6438 N.ar    1  UNL1       -0.1447
@<TRIPOS>BOND
     1     2     1    1
     2     2     3    1
     3     3     4    1
     4     4     5   am
     5     5     6    2
     6     5    10    1
     7    10    11   ar
     8    11    12   ar
     9    12    13   ar
    10    13    14   ar
    11    14    15    1
    12    14    16   ar
    13    16    17    1
    14    17    18   ar
    15    18    19   ar
    16    19    20   ar
    17    20    21   ar
    18     4     7    1
    19     7    22    1
    20    22    23    1
    21    23    24   ar
    22    24    25   ar
    23    25    30    1
    24    30    31   ar
    25    31    32   ar
    26    32    33   ar
    27    33    34   ar
    28    25    26   ar
    29    26    27   ar
    30    27    28   ar
    31    28    29    1
    32     7     8    1
    33     8     9    1
    34     9     2    1
    35    16    10   ar
    36    21    17   ar
    37    28    23   ar
    38    34    30   ar
