@<TRIPOS>MOLECULE
*****
 30 31 0 0 0
SMALL
GASTEIGER

@<TRIPOS>ATOM
      1 C          63.7236   87.6096   15.6382 C.2     1  UNL1        0.2539
      2 O          64.6616   87.0729   14.5980 O.2     1  UNL1       -0.2721
      3 N          63.3530   89.0632   15.6354 N.am    1  UNL1       -0.2819
      4 H          62.7374   89.4155   16.3181 H       1  UNL1        0.1549
      5 C          63.9205   89.9799   14.5925 C.ar    1  UNL1        0.0503
      6 C          63.2604   90.0882   13.2499 C.ar    1  UNL1        0.0153
      7 C          63.8279   91.0049   12.2070 C.ar    1  UNL1        0.0115
      8 C          65.0554   91.8133   12.5067 C.ar    1  UNL1        0.0724
      9 C          65.7154   91.7049   13.8492 C.ar    1  UNL1        0.0822
     10 C          65.1480   90.7882   14.8922 C.ar    1  UNL1        0.0192
     11 C          66.9429   92.5133   14.1489 C.3     1  UNL1        0.4192
     12 F          68.1704   93.3217   14.4486 F       1  UNL1       -0.1658
     13 F          66.0829   93.6246   14.6739 F       1  UNL1       -0.1658
     14 F          67.8029   91.4021   13.6240 F       1  UNL1       -0.1658
     15 C          65.6228   92.7299   11.4638 C.1     1  UNL1        0.1004
     16 N          66.1903   93.6467   10.4209 N.1     1  UNL1       -0.1908
     17 C          62.8495   87.8745   17.5528 C.3     1  UNL1        0.0427
     18 C          63.1562   86.6930   16.6811 C.3     1  UNL1        0.1971
     19 O          62.5887   85.7763   17.7240 O.3     1  UNL1       -0.3751
     20 H          62.6054   84.8636   17.3959 H       1  UNL1        0.2110
     21 C          63.4629   85.5114   15.8093 C.3     1  UNL1        0.2408
     22 O          62.3502   84.6360   15.3138 O.3     1  UNL1       -0.4723
     23 C          62.5591   83.7672   14.1090 C.ar    1  UNL1        0.1410
     24 C          63.0698   84.3660   12.8320 C.ar    1  UNL1        0.0379
     25 C          63.2787   83.4972   11.6273 C.ar    1  UNL1        0.0168
     26 C          62.9770   82.0296   11.6995 C.ar    1  UNL1        0.0852
     27 CL         63.1860   81.1608   10.4946 Cl      1  UNL1       -0.0799
     28 C          62.4664   81.4308   12.9764 C.ar    1  UNL1        0.1536
     29 F          62.1647   79.9632   13.0487 F       1  UNL1       -0.2032
     30 C          62.2574   82.2996   14.1812 C.ar    1  UNL1        0.0674
@<TRIPOS>BOND
     1    18    17    1
     2    18    19    1
     3    18    21    1
     4    21    22    1
     5    22    23    1
     6    23    24   ar
     7    24    25   ar
     8    25    26   ar
     9    26    27    1
    10    26    28   ar
    11    28    29    1
    12    28    30   ar
    13    18     1    1
    14     1     2    2
    15     1     3   am
    16     3     5    1
    17     5     6   ar
    18     6     7   ar
    19     7     8   ar
    20     8    15    1
    21    15    16    3
    22     8     9   ar
    23     9    11    1
    24    11    12    1
    25    11    13    1
    26    11    14    1
    27     9    10   ar
    28    30    23   ar
    29    10     5   ar
    30    19    20    1
    31     3     4    1
@<TRIPOS>MOLECULE
*****
 30 31 0 0 0
SMALL
GASTEIGER

@<TRIPOS>ATOM
      1 C          63.4582   90.5373   13.7579 C.2     1  UNL1        0.2539
      2 O          62.3530   89.7524   14.3999 O.2     1  UNL1       -0.2721
      3 N          63.5821   90.5737   12.2634 N.am    1  UNL1       -0.2819
      4 H          64.3075   91.0889   11.8420 H       1  UNL1        0.1549
      5 C          62.6008   89.8251   11.4110 C.ar    1  UNL1        0.0503
      6 C          61.4357   90.5457   10.7997 C.ar    1  UNL1        0.0153
      7 C          60.4544   89.7971    9.9474 C.ar    1  UNL1        0.0115
      8 C          60.6380   88.3280    9.7063 C.ar    1  UNL1        0.0724
      9 C          61.8029   87.6075   10.3175 C.ar    1  UNL1        0.0822
     10 C          62.7844   88.3561   11.1700 C.ar    1  UNL1        0.0192
     11 C          61.9865   86.1385   10.0764 C.3     1  UNL1        0.4192
     12 F          62.1701   84.6694    9.8354 F       1  UNL1       -0.1658
     13 F          61.1921   85.8363   11.3124 F       1  UNL1       -0.1658
     14 F          62.7809   86.4406    8.8405 F       1  UNL1       -0.1658
     15 C          59.6566   87.5795    8.8539 C.1     1  UNL1        0.1004
     16 N          58.6752   86.8309    8.0015 N.1     1  UNL1       -0.1908
     17 C          63.7308   90.8106   15.8438 C.3     1  UNL1        0.0427
     18 C          64.4396   91.2859   14.6103 C.3     1  UNL1        0.1971
     19 O          65.4209   92.0344   15.4626 O.3     1  UNL1       -0.3751
     20 H          66.0951   92.4425   14.8970 H       1  UNL1        0.2110
     21 C          65.1484   91.7612   13.3766 C.3     1  UNL1        0.2408
     22 O          65.8074   93.1086   13.3625 O.3     1  UNL1       -0.4723
     23 C          66.2905   93.6937   12.0684 C.ar    1  UNL1        0.1410
     24 C          66.1280   95.1608   11.8018 C.ar    1  UNL1        0.0379
     25 C          66.6111   95.7458   10.5078 C.ar    1  UNL1        0.0168
     26 C          67.2565   94.8637    9.4805 C.ar    1  UNL1        0.0852
     27 CL         67.7396   95.4488    8.1865 Cl      1  UNL1       -0.0799
     28 C          67.4190   93.3966    9.7472 C.ar    1  UNL1        0.1536
     29 F          68.0644   92.5145    8.7199 F       1  UNL1       -0.2032
     30 C          66.9359   92.8116   11.0412 C.ar    1  UNL1        0.0674
@<TRIPOS>BOND
     1    18    17    1
     2    18    19    1
     3    18    21    1
     4    21    22    1
     5    22    23    1
     6    23    24   ar
     7    24    25   ar
     8    25    26   ar
     9    26    27    1
    10    26    28   ar
    11    28    29    1
    12    28    30   ar
    13    18     1    1
    14     1     2    2
    15     1     3   am
    16     3     5    1
    17     5     6   ar
    18     6     7   ar
    19     7     8   ar
    20     8    15    1
    21    15    16    3
    22     8     9   ar
    23     9    11    1
    24    11    12    1
    25    11    13    1
    26    11    14    1
    27     9    10   ar
    28    30    23   ar
    29    10     5   ar
    30    19    20    1
    31     3     4    1
@<TRIPOS>MOLECULE
*****
 30 31 0 0 0
SMALL
GASTEIGER

@<TRIPOS>ATOM
      1 C          61.0403   88.3486   10.1325 C.2     1  UNL1        0.2539
      2 O          60.2884   88.4694   11.4248 O.2     1  UNL1       -0.2721
      3 N          62.4236   88.9167   10.0138 N.am    1  UNL1       -0.2819
      4 H          62.9171   88.8374    9.1656 H       1  UNL1        0.1549
      5 C          63.0548   89.6055   11.1872 C.ar    1  UNL1        0.0503
      6 C          63.6437   90.9755   11.0250 C.ar    1  UNL1        0.0153
      7 C          64.2749   91.6643   12.1984 C.ar    1  UNL1        0.0115
      8 C          64.3172   90.9832   13.5342 C.ar    1  UNL1        0.0724
      9 C          63.7283   89.6133   13.6965 C.ar    1  UNL1        0.0822
     10 C          63.0970   88.9244   12.5230 C.ar    1  UNL1        0.0192
     11 C          63.7705   88.9322   15.0323 C.3     1  UNL1        0.4192
     12 F          63.8128   88.2511   16.3681 F       1  UNL1       -0.1658
     13 F          62.6350   89.7903   15.5058 F       1  UNL1       -0.1658
     14 F          64.9060   88.0740   14.5588 F       1  UNL1       -0.1658
     15 C          64.9484   91.6720   14.7077 C.1     1  UNL1        0.1004
     16 N          65.5796   92.3609   15.8812 N.1     1  UNL1       -0.1908
     17 C          59.9543   88.9858    8.4254 C.3     1  UNL1        0.0427
     18 C          60.4091   87.6598    8.9591 C.3     1  UNL1        0.1971
     19 O          59.7779   86.9710    7.7856 O.3     1  UNL1       -0.3751
     20 H          59.9639   86.0200    7.8305 H       1  UNL1        0.2110
     21 C          60.8641   86.3338    9.4928 C.3     1  UNL1        0.2408
     22 O          62.3293   86.0397    9.6212 O.3     1  UNL1       -0.4723
     23 C          62.7951   84.9212   10.5056 C.ar    1  UNL1        0.1410
     24 C          63.6451   83.8222    9.9401 C.ar    1  UNL1        0.0379
     25 C          64.1109   82.7038   10.8245 C.ar    1  UNL1        0.0168
     26 C          63.7267   82.6844   12.2743 C.ar    1  UNL1        0.0852
     27 CL         64.1926   81.5659   13.1587 Cl      1  UNL1       -0.0799
     28 C          62.8768   83.7834   12.8398 C.ar    1  UNL1        0.1536
     29 F          62.4926   83.7640   14.2896 F       1  UNL1       -0.2032
     30 C          62.4110   84.9018   11.9554 C.ar    1  UNL1        0.0674
@<TRIPOS>BOND
     1    18    17    1
     2    18    19    1
     3    18    21    1
     4    21    22    1
     5    22    23    1
     6    23    24   ar
     7    24    25   ar
     8    25    26   ar
     9    26    27    1
    10    26    28   ar
    11    28    29    1
    12    28    30   ar
    13    18     1    1
    14     1     2    2
    15     1     3   am
    16     3     5    1
    17     5     6   ar
    18     6     7   ar
    19     7     8   ar
    20     8    15    1
    21    15    16    3
    22     8     9   ar
    23     9    11    1
    24    11    12    1
    25    11    13    1
    26    11    14    1
    27     9    10   ar
    28    30    23   ar
    29    10     5   ar
    30    19    20    1
    31     3     4    1
@<TRIPOS>MOLECULE
*****
 30 31 0 0 0
SMALL
GASTEIGER

@<TRIPOS>ATOM
      1 C          62.0331   89.8691   11.2175 C.2     1  UNL1        0.2539
      2 O          63.1055   90.0067   10.1778 O.2     1  UNL1       -0.2721
      3 N          62.3157   90.2480   12.6412 N.am    1  UNL1       -0.2819
      4 H          61.6119   90.1577   13.3236 H       1  UNL1        0.1549
      5 C          63.6707   90.7645   13.0250 C.ar    1  UNL1        0.0503
      6 C          64.3377   90.2657   14.2725 C.ar    1  UNL1        0.0153
      7 C          65.6927   90.7821   14.6563 C.ar    1  UNL1        0.0115
      8 C          66.3806   91.7974   13.7927 C.ar    1  UNL1        0.0724
      9 C          65.7136   92.2962   12.5452 C.ar    1  UNL1        0.0822
     10 C          64.3586   91.7797   12.1613 C.ar    1  UNL1        0.0192
     11 C          66.4016   93.3115   11.6815 C.3     1  UNL1        0.4192
     12 F          67.0895   94.3268   10.8178 F       1  UNL1       -0.1658
     13 F          65.9642   94.4015   12.6145 F       1  UNL1       -0.1658
     14 F          66.8389   92.2214   10.7485 F       1  UNL1       -0.1658
     15 C          67.7355   92.3139   14.1765 C.1     1  UNL1        0.1004
     16 N          69.0906   92.8304   14.5603 N.1     1  UNL1       -0.1908
     17 C          60.1085   89.8993   12.1091 C.3     1  UNL1        0.0427
     18 C          60.6782   89.3526   10.8337 C.3     1  UNL1        0.1971
     19 O          59.3232   88.8362   10.4499 O.3     1  UNL1       -0.3751
     20 H          59.3674   88.4377    9.5666 H       1  UNL1        0.2110
     21 C          61.2479   88.8059    9.5583 C.3     1  UNL1        0.2408
     22 O          60.8972   87.4165    9.1152 O.3     1  UNL1       -0.4723
     23 C          61.7534   86.2576    9.5325 C.ar    1  UNL1        0.1410
     24 C          62.6749   85.6107    8.5414 C.ar    1  UNL1        0.0379
     25 C          63.5309   84.4519    8.9588 C.ar    1  UNL1        0.0168
     26 C          63.4655   83.9400   10.3672 C.ar    1  UNL1        0.0852
     27 CL         64.3216   82.7811   10.7846 Cl      1  UNL1       -0.0799
     28 C          62.5440   84.5869   11.3583 C.ar    1  UNL1        0.1536
     29 F          62.4785   84.0750   12.7667 F       1  UNL1       -0.2032
     30 C          61.6879   85.7457   10.9409 C.ar    1  UNL1        0.0674
@<TRIPOS>BOND
     1    18    17    1
     2    18    19    1
     3    18    21    1
     4    21    22    1
     5    22    23    1
     6    23    24   ar
     7    24    25   ar
     8    25    26   ar
     9    26    27    1
    10    26    28   ar
    11    28    29    1
    12    28    30   ar
    13    18     1    1
    14     1     2    2
    15     1     3   am
    16     3     5    1
    17     5     6   ar
    18     6     7   ar
    19     7     8   ar
    20     8    15    1
    21    15    16    3
    22     8     9   ar
    23     9    11    1
    24    11    12    1
    25    11    13    1
    26    11    14    1
    27     9    10   ar
    28    30    23   ar
    29    10     5   ar
    30    19    20    1
    31     3     4    1
@<TRIPOS>MOLECULE
*****
 30 31 0 0 0
SMALL
GASTEIGER

@<TRIPOS>ATOM
      1 C          61.0112   87.6079   10.1685 C.2     1  UNL1        0.2539
      2 O          60.3374   87.4057   11.4933 O.2     1  UNL1       -0.2721
      3 N          62.1136   86.6856    9.7392 N.am    1  UNL1       -0.2819
      4 H          62.5558   86.8184    8.8697 H       1  UNL1        0.1549
      5 C          62.5421   85.5612   10.6347 C.ar    1  UNL1        0.0503
      6 C          62.8402   84.2110   10.0530 C.ar    1  UNL1        0.0153
      7 C          63.2687   83.0866   10.9485 C.ar    1  UNL1        0.0115
      8 C          63.3993   83.3123   12.4257 C.ar    1  UNL1        0.0724
      9 C          63.1013   84.6623   13.0074 C.ar    1  UNL1        0.0822
     10 C          62.6727   85.7869   12.1119 C.ar    1  UNL1        0.0192
     11 C          63.2318   84.8880   14.4846 C.3     1  UNL1        0.4192
     12 F          63.3624   85.1137   15.9617 F       1  UNL1       -0.1658
     13 F          64.6338   85.3826   14.2851 F       1  UNL1       -0.1658
     14 F          61.8298   84.3935   14.6840 F       1  UNL1       -0.1658
     15 C          63.8278   82.1878   13.3212 C.1     1  UNL1        0.1004
     16 N          64.2564   81.0633   14.2167 N.1     1  UNL1       -0.1908
     17 C          59.9082   87.7499    8.3621 C.3     1  UNL1        0.0427
     18 C          60.5826   88.7323    9.2730 C.3     1  UNL1        0.1971
     19 O          60.1541   89.8568    8.3775 O.3     1  UNL1       -0.3751
     20 H          60.4275   90.7022    8.7666 H       1  UNL1        0.2110
     21 C          61.2571   89.7148   10.1840 C.3     1  UNL1        0.2408
     22 O          62.7535   89.8173   10.2006 O.3     1  UNL1       -0.4723
     23 C          63.4623   90.2431   11.4521 C.ar    1  UNL1        0.1410
     24 C          64.1916   91.5533   11.4922 C.ar    1  UNL1        0.0379
     25 C          64.9004   91.9790   12.7437 C.ar    1  UNL1        0.0168
     26 C          64.8799   91.0947   13.9551 C.ar    1  UNL1        0.0852
     27 CL         65.5887   91.5205   15.2067 Cl      1  UNL1       -0.0799
     28 C          64.1506   89.7845   13.9150 C.ar    1  UNL1        0.1536
     29 F          64.1300   88.9002   15.1264 F       1  UNL1       -0.2032
     30 C          63.4418   89.3588   12.6635 C.ar    1  UNL1        0.0674
@<TRIPOS>BOND
     1    18    17    1
     2    18    19    1
     3    18    21    1
     4    21    22    1
     5    22    23    1
     6    23    24   ar
     7    24    25   ar
     8    25    26   ar
     9    26    27    1
    10    26    28   ar
    11    28    29    1
    12    28    30   ar
    13    18     1    1
    14     1     2    2
    15     1     3   am
    16     3     5    1
    17     5     6   ar
    18     6     7   ar
    19     7     8   ar
    20     8    15    1
    21    15    16    3
    22     8     9   ar
    23     9    11    1
    24    11    12    1
    25    11    13    1
    26    11    14    1
    27     9    10   ar
    28    30    23   ar
    29    10     5   ar
    30    19    20    1
    31     3     4    1
@<TRIPOS>MOLECULE
*****
 30 31 0 0 0
SMALL
GASTEIGER

@<TRIPOS>ATOM
      1 C          61.0275   89.6245   10.4176 C.2     1  UNL1        0.2539
      2 O          60.4525   90.5611   11.4385 O.2     1  UNL1       -0.2721
      3 N          62.5104   89.5745   10.1967 N.am    1  UNL1       -0.2819
      4 H          62.8878   88.9598    9.5266 H       1  UNL1        0.1549
      5 C          63.4181   90.4611   10.9966 C.ar    1  UNL1        0.0503
      6 C          63.4697   90.3298   12.4900 C.ar    1  UNL1        0.0153
      7 C          64.3774   91.2163   13.2900 C.ar    1  UNL1        0.0115
      8 C          65.2337   92.2342   12.5966 C.ar    1  UNL1        0.0724
      9 C          65.1823   92.3655   11.1032 C.ar    1  UNL1        0.0822
     10 C          64.2744   91.4789   10.3032 C.ar    1  UNL1        0.0192
     11 C          66.0385   93.3833   10.4098 C.3     1  UNL1        0.4192
     12 F          66.8948   94.4011    9.7165 F       1  UNL1       -0.1658
     13 F          67.1235   92.3602   10.2480 F       1  UNL1       -0.1658
     14 F          64.9536   94.4063   10.5717 F       1  UNL1       -0.1658
     15 C          66.1415   93.1207   13.3965 C.1     1  UNL1        0.1004
     16 N          67.0494   94.0072   14.1965 N.1     1  UNL1       -0.1908
     17 C          60.2719   89.6488    8.4356 C.3     1  UNL1        0.0427
     18 C          60.1197   88.7380    9.6177 C.3     1  UNL1        0.1971
     19 O          59.2119   87.8515    8.8177 O.3     1  UNL1       -0.3751
     20 H          58.9653   87.0780    9.3486 H       1  UNL1        0.2110
     21 C          59.9676   87.8272   10.7998 C.3     1  UNL1        0.2408
     22 O          61.1725   87.4281   11.5991 O.3     1  UNL1       -0.4723
     23 C          61.9623   86.2138   11.2095 C.ar    1  UNL1        0.1410
     24 C          62.4658   85.2758   12.2662 C.ar    1  UNL1        0.0379
     25 C          63.2556   84.0616   11.8765 C.ar    1  UNL1        0.0168
     26 C          63.5420   83.7854   10.4303 C.ar    1  UNL1        0.0852
     27 CL         64.3319   82.5711   10.0407 Cl      1  UNL1       -0.0799
     28 C          63.0385   84.7234    9.3736 C.ar    1  UNL1        0.1536
     29 F          63.3249   84.4473    7.9273 F       1  UNL1       -0.2032
     30 C          62.2487   85.9376    9.7632 C.ar    1  UNL1        0.0674
@<TRIPOS>BOND
     1    18    17    1
     2    18    19    1
     3    18    21    1
     4    21    22    1
     5    22    23    1
     6    23    24   ar
     7    24    25   ar
     8    25    26   ar
     9    26    27    1
    10    26    28   ar
    11    28    29    1
    12    28    30   ar
    13    18     1    1
    14     1     2    2
    15     1     3   am
    16     3     5    1
    17     5     6   ar
    18     6     7   ar
    19     7     8   ar
    20     8    15    1
    21    15    16    3
    22     8     9   ar
    23     9    11    1
    24    11    12    1
    25    11    13    1
    26    11    14    1
    27     9    10   ar
    28    30    23   ar
    29    10     5   ar
    30    19    20    1
    31     3     4    1
@<TRIPOS>MOLECULE
*****
 30 31 0 0 0
SMALL
GASTEIGER

@<TRIPOS>ATOM
      1 C          62.7812   83.6363   12.6271 C.2     1  UNL1        0.2539
      2 O          62.3716   82.8673   11.4061 O.2     1  UNL1       -0.2721
      3 N          62.5519   85.1173   12.6927 N.am    1  UNL1       -0.2819
      4 H          62.8208   85.6220   13.4940 H       1  UNL1        0.1549
      5 C          61.9130   85.8291   11.5373 C.ar    1  UNL1        0.0503
      6 C          61.1065   87.0714   11.7749 C.ar    1  UNL1        0.0153
      7 C          60.4676   87.7833   10.6195 C.ar    1  UNL1        0.0115
      8 C          60.6351   87.2529    9.2264 C.ar    1  UNL1        0.0724
      9 C          61.4415   86.0107    8.9887 C.ar    1  UNL1        0.0822
     10 C          62.0805   85.2988   10.1442 C.ar    1  UNL1        0.0192
     11 C          61.6090   85.4804    7.5957 C.3     1  UNL1        0.4192
     12 F          61.7766   84.9500    6.2026 F       1  UNL1       -0.1658
     13 F          63.0974   85.6175    7.7224 F       1  UNL1       -0.1658
     14 F          60.1207   85.3432    7.4689 F       1  UNL1       -0.1658
     15 C          59.9962   87.9648    8.0710 C.1     1  UNL1        0.1004
     16 N          59.3572   88.6766    6.9155 N.1     1  UNL1       -0.1908
     17 C          62.7080   81.6615   13.3982 C.3     1  UNL1        0.0427
     18 C          63.4201   82.9244   13.7825 C.3     1  UNL1        0.1971
     19 O          64.0590   82.2126   14.9379 O.3     1  UNL1       -0.3751
     20 H          64.6709   82.8143   15.3901 H       1  UNL1        0.2110
     21 C          64.1323   84.1875   14.1668 C.3     1  UNL1        0.2408
     22 O          63.9887   84.7367   15.5553 O.3     1  UNL1       -0.4723
     23 C          63.8371   86.2142   15.7655 C.ar    1  UNL1        0.1410
     24 C          63.1297   86.7297   16.9835 C.ar    1  UNL1        0.0379
     25 C          62.9782   88.2072   17.1937 C.ar    1  UNL1        0.0168
     26 C          63.5341   89.1690   16.1858 C.ar    1  UNL1        0.0852
     27 CL         63.3825   90.6465   16.3960 Cl      1  UNL1       -0.0799
     28 C          64.2415   88.6534   14.9677 C.ar    1  UNL1        0.1536
     29 F          64.7974   89.6153   13.9599 F       1  UNL1       -0.2032
     30 C          64.3930   87.1760   14.7576 C.ar    1  UNL1        0.0674
@<TRIPOS>BOND
     1    18    17    1
     2    18    19    1
     3    18    21    1
     4    21    22    1
     5    22    23    1
     6    23    24   ar
     7    24    25   ar
     8    25    26   ar
     9    26    27    1
    10    26    28   ar
    11    28    29    1
    12    28    30   ar
    13    18     1    1
    14     1     2    2
    15     1     3   am
    16     3     5    1
    17     5     6   ar
    18     6     7   ar
    19     7     8   ar
    20     8    15    1
    21    15    16    3
    22     8     9   ar
    23     9    11    1
    24    11    12    1
    25    11    13    1
    26    11    14    1
    27     9    10   ar
    28    30    23   ar
    29    10     5   ar
    30    19    20    1
    31     3     4    1
@<TRIPOS>MOLECULE
*****
 30 31 0 0 0
SMALL
GASTEIGER

@<TRIPOS>ATOM
      1 C          63.0056   84.4775   11.9855 C.2     1  UNL1        0.2539
      2 O          61.9511   85.2307   12.7409 O.2     1  UNL1       -0.2721
      3 N          63.1719   84.6957   10.5107 N.am    1  UNL1       -0.2819
      4 H          63.8640   84.2014   10.0149 H       1  UNL1        0.1549
      5 C          62.2837   85.6671    9.7915 C.ar    1  UNL1        0.0503
      6 C          61.6842   85.2966    8.4673 C.ar    1  UNL1        0.0153
      7 C          60.7960   86.2680    7.7480 C.ar    1  UNL1        0.0115
      8 C          60.5072   87.6099    8.3529 C.ar    1  UNL1        0.0724
      9 C          61.1066   87.9804    9.6770 C.ar    1  UNL1        0.0822
     10 C          61.9949   87.0090   10.3964 C.ar    1  UNL1        0.0192
     11 C          60.8178   89.3224   10.2819 C.3     1  UNL1        0.4192
     12 F          60.5290   90.6643   10.8868 F       1  UNL1       -0.1658
     13 F          62.0475   89.8811    9.6295 F       1  UNL1       -0.1658
     14 F          59.5881   88.7636   10.9343 F       1  UNL1       -0.1658
     15 C          59.6190   88.5814    7.6336 C.1     1  UNL1        0.1004
     16 N          58.7307   89.5528    6.9143 N.1     1  UNL1       -0.1908
     17 C          64.5337   83.1266   11.4022 C.3     1  UNL1        0.0427
     18 C          63.8939   83.5060   12.7047 C.3     1  UNL1        0.1971
     19 O          64.7821   82.5346   13.4240 O.3     1  UNL1       -0.3751
     20 H          64.6202   82.5941   14.3785 H       1  UNL1        0.2110
     21 C          63.2540   83.8855   14.0073 C.3     1  UNL1        0.2408
     22 O          64.0841   84.4817   15.1051 O.3     1  UNL1       -0.4723
     23 C          63.8821   85.9132   15.5053 C.ar    1  UNL1        0.1410
     24 C          63.1594   86.2414   16.7780 C.ar    1  UNL1        0.0379
     25 C          62.9573   87.6728   17.1781 C.ar    1  UNL1        0.0168
     26 C          63.4780   88.7761   16.3054 C.ar    1  UNL1        0.0852
     27 CL         63.2759   90.2076   16.7056 Cl      1  UNL1       -0.0799
     28 C          64.2007   88.4480   15.0326 C.ar    1  UNL1        0.1536
     29 F          64.7213   89.5513   14.1600 F       1  UNL1       -0.2032
     30 C          64.4027   87.0166   14.6326 C.ar    1  UNL1        0.0674
@<TRIPOS>BOND
     1    18    17    1
     2    18    19    1
     3    18    21    1
     4    21    22    1
     5    22    23    1
     6    23    24   ar
     7    24    25   ar
     8    25    26   ar
     9    26    27    1
    10    26    28   ar
    11    28    29    1
    12    28    30   ar
    13    18     1    1
    14     1     2    2
    15     1     3   am
    16     3     5    1
    17     5     6   ar
    18     6     7   ar
    19     7     8   ar
    20     8    15    1
    21    15    16    3
    22     8     9   ar
    23     9    11    1
    24    11    12    1
    25    11    13    1
    26    11    14    1
    27     9    10   ar
    28    30    23   ar
    29    10     5   ar
    30    19    20    1
    31     3     4    1
@<TRIPOS>MOLECULE
*****
 30 31 0 0 0
SMALL
GASTEIGER

@<TRIPOS>ATOM
      1 C          61.4895   87.4807   10.7220 C.2     1  UNL1        0.2539
      2 O          60.6192   86.3295   10.3130 O.2     1  UNL1       -0.2721
      3 N          62.6396   87.2558   11.6584 N.am    1  UNL1       -0.2819
      4 H          63.2108   88.0114   11.9268 H       1  UNL1        0.1549
      5 C          62.9194   85.8797   12.1857 C.ar    1  UNL1        0.0503
      6 C          63.1716   85.6746   13.6500 C.ar    1  UNL1        0.0153
      7 C          63.4514   84.2985   14.1773 C.ar    1  UNL1        0.0115
      8 C          63.4789   83.1275   13.2403 C.ar    1  UNL1        0.0724
      9 C          63.2267   83.3326   11.7760 C.ar    1  UNL1        0.0822
     10 C          62.9469   84.7087   11.2486 C.ar    1  UNL1        0.0192
     11 C          63.2542   82.1616   10.8390 C.3     1  UNL1        0.4192
     12 F          63.2817   80.9906    9.9020 F       1  UNL1       -0.1658
     13 F          64.4589   82.7370   10.1553 F       1  UNL1       -0.1658
     14 F          62.0494   81.5862   11.5227 F       1  UNL1       -0.1658
     15 C          63.7587   81.7514   13.7676 C.1     1  UNL1        0.1004
     16 N          64.0384   80.3753   14.2949 N.1     1  UNL1       -0.1908
     17 C          60.5363   88.2600    8.9946 C.3     1  UNL1        0.0427
     18 C          61.2097   88.8568   10.1947 C.3     1  UNL1        0.1971
     19 O          60.9300   90.2329    9.6674 O.3     1  UNL1       -0.3751
     20 H          61.2334   90.8932   10.3099 H       1  UNL1        0.2110
     21 C          61.8832   89.4536   11.3949 C.3     1  UNL1        0.2408
     22 O          62.7739   90.6501   11.2375 O.3     1  UNL1       -0.4723
     23 C          63.8514   90.9208   12.2454 C.ar    1  UNL1        0.1410
     24 C          63.9627   90.0652   13.4724 C.ar    1  UNL1        0.0379
     25 C          65.0401   90.3359   14.4803 C.ar    1  UNL1        0.0168
     26 C          66.0063   91.4622   14.2611 C.ar    1  UNL1        0.0852
     27 CL         67.0837   91.7329   15.2691 Cl      1  UNL1       -0.0799
     28 C          65.8949   92.3178   13.0342 C.ar    1  UNL1        0.1536
     29 F          66.8611   93.4442   12.8150 F       1  UNL1       -0.2032
     30 C          64.8175   92.0471   12.0263 C.ar    1  UNL1        0.0674
@<TRIPOS>BOND
     1    18    17    1
     2    18    19    1
     3    18    21    1
     4    21    22    1
     5    22    23    1
     6    23    24   ar
     7    24    25   ar
     8    25    26   ar
     9    26    27    1
    10    26    28   ar
    11    28    29    1
    12    28    30   ar
    13    18     1    1
    14     1     2    2
    15     1     3   am
    16     3     5    1
    17     5     6   ar
    18     6     7   ar
    19     7     8   ar
    20     8    15    1
    21    15    16    3
    22     8     9   ar
    23     9    11    1
    24    11    12    1
    25    11    13    1
    26    11    14    1
    27     9    10   ar
    28    30    23   ar
    29    10     5   ar
    30    19    20    1
    31     3     4    1
