@<TRIPOS>MOLECULE
*****
 33 37 0 0 0
SMALL
GASTEIGER

@<TRIPOS>ATOM
      1 O          63.5830   87.4958   12.9897 O.2     1  UNL1       -0.2699
      2 C          62.7747   86.8777   11.8876 C.2     1  UNL1        0.2506
      3 N          61.7634   87.7012   11.1466 N.am    1  UNL1       -0.2723
      4 C          60.9551   87.0831   10.0445 C.3     1  UNL1        0.1257
      5 C          59.9439   87.9067    9.3035 C.3     1  UNL1        0.1637
      6 O          59.7409   89.3484    9.6645 O.3     1  UNL1       -0.3502
      7 C          60.5492   89.9665   10.7666 C.3     1  UNL1        0.1622
      8 C          61.5605   89.1430   11.5077 C.3     1  UNL1        0.1097
      9 C          62.9776   85.4360   11.5266 C.ar    1  UNL1        0.0730
     10 C          63.0240   85.0231   10.0853 C.ar    1  UNL1        0.0070
     11 C          63.2269   83.5815    9.7242 C.ar    1  UNL1        0.0116
     12 C          63.3836   82.5527   10.8045 C.ar    1  UNL1        0.0592
     13 CL         63.5866   81.1109   10.4434 Cl      1  UNL1       -0.0822
     14 C          63.3373   82.9655   12.2458 C.ar    1  UNL1        0.0324
     15 C          63.1343   84.4072   12.6069 C.ar    1  UNL1        0.1081
     16 N          63.0880   84.8200   14.0482 N.ar    1  UNL1       -0.1476
     17 N          61.8835   84.7717   14.9409 N.ar    1  UNL1       -0.1447
     18 C          62.2891   85.2755   16.2943 C.ar    1  UNL1        0.1446
     19 C          63.7442   85.6352   16.2380 C.ar    1  UNL1        0.1446
     20 N          64.2379   85.3537   14.8499 N.ar    1  UNL1       -0.1447
     21 C          62.3687   89.7611   12.6097 C.3     1  UNL1        0.0510
     22 C          63.4982   90.6915   12.2803 C.ar    1  UNL1        0.0086
     23 C          64.5044   91.0517   13.3328 C.ar    1  UNL1        0.0189
     24 C          65.6340   91.9822   13.0034 C.ar    1  UNL1        0.1027
     25 C          65.7573   92.5523   11.6215 C.ar    1  UNL1        0.0232
     26 C          64.7510   92.1921   10.5690 C.ar    1  UNL1        0.0309
     27 C          63.6215   91.2617   10.8984 C.ar    1  UNL1        0.1363
     28 F          62.6154   90.9014    9.8459 F       1  UNL1       -0.2045
     29 N          66.6401   92.3424   14.0559 N.ar    1  UNL1       -0.1478
     30 N          66.3322   92.7739   15.4591 N.ar    1  UNL1       -0.1447
     31 C          67.6327   93.0325   16.1605 C.ar    1  UNL1        0.1446
     32 C          68.7444   92.7610   15.1907 C.ar    1  UNL1        0.1446
     33 N          68.1309   92.3344   13.8900 N.ar    1  UNL1       -0.1447
@<TRIPOS>BOND
     1     1     2    2
     2     2     9    1
     3     9    10   ar
     4    10    11   ar
     5    11    12   ar
     6    12    13    1
     7    12    14   ar
     8    14    15   ar
     9    15    16    1
    10    16    17   ar
    11    17    18   ar
    12    18    19   ar
    13    19    20   ar
    14     2     3   am
    15     3     4    1
    16     4     5    1
    17     5     6    1
    18     6     7    1
    19     7     8    1
    20     8    21    1
    21    21    22    1
    22    22    23   ar
    23    23    24   ar
    24    24    29    1
    25    29    30   ar
    26    30    31   ar
    27    31    32   ar
    28    32    33   ar
    29    24    25   ar
    30    25    26   ar
    31    26    27   ar
    32    27    28    1
    33    15     9   ar
    34    20    16   ar
    35     8     3    1
    36    27    22   ar
    37    33    29   ar
@<TRIPOS>MOLECULE
*****
 33 37 0 0 0
SMALL
GASTEIGER

@<TRIPOS>ATOM
      1 O          63.5776   87.4780   13.5686 O.2     1  UNL1       -0.2699
      2 C          62.9955   87.0730   12.2468 C.2     1  UNL1        0.2506
      3 N          62.3133   88.0926   11.3838 N.am    1  UNL1       -0.2723
      4 C          61.7311   87.6876   10.0620 C.3     1  UNL1        0.1257
      5 C          61.0489   88.7073    9.1989 C.3     1  UNL1        0.1637
      6 O          60.9488   90.1319    9.6576 O.3     1  UNL1       -0.3502
      7 C          61.5309   90.5369   10.9794 C.3     1  UNL1        0.1622
      8 C          62.2131   89.5173   11.8425 C.3     1  UNL1        0.1097
      9 C          63.0956   85.6483   11.7881 C.ar    1  UNL1        0.0730
     10 C          63.1236   85.3327   10.3219 C.ar    1  UNL1        0.0070
     11 C          63.2237   83.9081    9.8632 C.ar    1  UNL1        0.0116
     12 C          63.2959   82.7992   10.8706 C.ar    1  UNL1        0.0592
     13 CL         63.3961   81.3745   10.4119 Cl      1  UNL1       -0.0822
     14 C          63.2680   83.1148   12.3368 C.ar    1  UNL1        0.0324
     15 C          63.1678   84.5394   12.7955 C.ar    1  UNL1        0.1081
     16 N          63.1399   84.8550   14.2617 N.ar    1  UNL1       -0.1476
     17 N          64.3209   85.2361   15.1042 N.ar    1  UNL1       -0.1447
     18 C          63.8369   85.4616   16.5060 C.ar    1  UNL1        0.1446
     19 C          62.3567   85.2198   16.5298 C.ar    1  UNL1        0.1446
     20 N          61.9259   84.8450   15.1427 N.ar    1  UNL1       -0.1447
     21 C          62.7953   89.9223   13.1643 C.3     1  UNL1        0.0510
     22 C          64.0931   90.6726   13.2139 C.ar    1  UNL1        0.0086
     23 C          64.4721   91.5907   12.0899 C.ar    1  UNL1        0.0189
     24 C          65.7701   92.3410   12.1395 C.ar    1  UNL1        0.1027
     25 C          66.6889   92.1733   13.3131 C.ar    1  UNL1        0.0232
     26 C          66.3099   91.2551   14.4372 C.ar    1  UNL1        0.0309
     27 C          65.0120   90.5048   14.3876 C.ar    1  UNL1        0.1363
     28 F          64.6330   89.5868   15.5116 F       1  UNL1       -0.2045
     29 N          66.1490   93.2591   11.0154 N.ar    1  UNL1       -0.1478
     30 N          65.6128   94.6412   10.7870 N.ar    1  UNL1       -0.1447
     31 C          66.2631   95.1926    9.5529 C.ar    1  UNL1        0.1446
     32 C          67.2013   94.1512    9.0186 C.ar    1  UNL1        0.1446
     33 N          67.1308   92.9563    9.9225 N.ar    1  UNL1       -0.1447
@<TRIPOS>BOND
     1     1     2    2
     2     2     9    1
     3     9    10   ar
     4    10    11   ar
     5    11    12   ar
     6    12    13    1
     7    12    14   ar
     8    14    15   ar
     9    15    16    1
    10    16    17   ar
    11    17    18   ar
    12    18    19   ar
    13    19    20   ar
    14     2     3   am
    15     3     4    1
    16     4     5    1
    17     5     6    1
    18     6     7    1
    19     7     8    1
    20     8    21    1
    21    21    22    1
    22    22    23   ar
    23    23    24   ar
    24    24    29    1
    25    29    30   ar
    26    30    31   ar
    27    31    32   ar
    28    32    33   ar
    29    24    25   ar
    30    25    26   ar
    31    26    27   ar
    32    27    28    1
    33    15     9   ar
    34    20    16   ar
    35     8     3    1
    36    27    22   ar
    37    33    29   ar
@<TRIPOS>MOLECULE
*****
 33 37 0 0 0
SMALL
GASTEIGER

@<TRIPOS>ATOM
      1 O          65.7878   90.8738   13.9710 O.2     1  UNL1       -0.2699
      2 C          65.0331   91.3082   12.7496 C.2     1  UNL1        0.2506
      3 N          63.9280   90.4516   12.2067 N.am    1  UNL1       -0.2723
      4 C          63.1733   90.8860   10.9854 C.3     1  UNL1        0.1257
      5 C          62.0681   90.0293   10.4425 C.3     1  UNL1        0.1637
      6 O          61.7177   88.7382   11.1209 O.3     1  UNL1       -0.3502
      7 C          62.4724   88.3038   12.3423 C.3     1  UNL1        0.1622
      8 C          63.5775   89.1604   12.8852 C.3     1  UNL1        0.1097
      9 C          65.3836   92.5993   12.0712 C.ar    1  UNL1        0.0730
     10 C          64.8179   92.9131   10.7179 C.ar    1  UNL1        0.0070
     11 C          65.1683   94.2042   10.0394 C.ar    1  UNL1        0.0116
     12 C          66.0845   95.1814   10.7143 C.ar    1  UNL1        0.0592
     13 CL         66.4350   96.4726   10.0358 Cl      1  UNL1       -0.0822
     14 C          66.6503   94.8676   12.0676 C.ar    1  UNL1        0.0324
     15 C          66.2998   93.5766   12.7460 C.ar    1  UNL1        0.1081
     16 N          66.8656   93.2628   14.0994 N.ar    1  UNL1       -0.1476
     17 N          68.2928   92.9111   14.3984 N.ar    1  UNL1       -0.1447
     18 C          68.4128   92.6766   15.8751 C.ar    1  UNL1        0.1446
     19 C          67.0597   92.8833   16.4887 C.ar    1  UNL1        0.1446
     20 N          66.1036   93.2456   15.3912 N.ar    1  UNL1       -0.1447
     21 C          64.3322   88.7260   14.1065 C.3     1  UNL1        0.0510
     22 C          63.9451   87.4634   14.8178 C.ar    1  UNL1        0.0086
     23 C          64.0415   86.1444   14.1102 C.ar    1  UNL1        0.0189
     24 C          63.6544   84.8816   14.8214 C.ar    1  UNL1        0.1027
     25 C          63.1709   84.9381   16.2402 C.ar    1  UNL1        0.0232
     26 C          63.0745   86.2572   16.9478 C.ar    1  UNL1        0.0309
     27 C          63.4616   87.5198   16.2366 C.ar    1  UNL1        0.1363
     28 F          63.3652   88.8389   16.9442 F       1  UNL1       -0.2045
     29 N          63.7508   83.5626   14.1138 N.ar    1  UNL1       -0.1478
     30 N          63.3312   82.2328   14.6666 N.ar    1  UNL1       -0.1447
     31 C          63.6048   81.1900   13.6236 C.ar    1  UNL1        0.1446
     32 C          64.1935   81.8754   12.4261 C.ar    1  UNL1        0.1446
     33 N          64.2837   83.3417   12.7291 N.ar    1  UNL1       -0.1447
@<TRIPOS>BOND
     1     1     2    2
     2     2     9    1
     3     9    10   ar
     4    10    11   ar
     5    11    12   ar
     6    12    13    1
     7    12    14   ar
     8    14    15   ar
     9    15    16    1
    10    16    17   ar
    11    17    18   ar
    12    18    19   ar
    13    19    20   ar
    14     2     3   am
    15     3     4    1
    16     4     5    1
    17     5     6    1
    18     6     7    1
    19     7     8    1
    20     8    21    1
    21    21    22    1
    22    22    23   ar
    23    23    24   ar
    24    24    29    1
    25    29    30   ar
    26    30    31   ar
    27    31    32   ar
    28    32    33   ar
    29    24    25   ar
    30    25    26   ar
    31    26    27   ar
    32    27    28    1
    33    15     9   ar
    34    20    16   ar
    35     8     3    1
    36    27    22   ar
    37    33    29   ar
@<TRIPOS>MOLECULE
*****
 33 37 0 0 0
SMALL
GASTEIGER

@<TRIPOS>ATOM
      1 O          63.4626   88.1209   11.8400 O.2     1  UNL1       -0.2699
      2 C          63.4650   87.4697   13.1913 C.2     1  UNL1        0.2506
      3 N          63.3728   88.3112   14.4295 N.am    1  UNL1       -0.2723
      4 C          63.3752   87.6600   15.7808 C.3     1  UNL1        0.1257
      5 C          63.2829   88.5017   17.0191 C.3     1  UNL1        0.1637
      6 O          63.1882   89.9944   16.9060 O.3     1  UNL1       -0.3502
      7 C          63.1858   90.6455   15.5548 C.3     1  UNL1        0.1622
      8 C          63.2781   89.8040   14.3165 C.3     1  UNL1        0.1097
      9 C          63.5597   85.9769   13.3043 C.ar    1  UNL1        0.0730
     10 C          64.3348   85.3576   14.4293 C.ar    1  UNL1        0.0070
     11 C          64.4295   83.8649   14.5423 C.ar    1  UNL1        0.0116
     12 C          63.7491   82.9915   13.5303 C.ar    1  UNL1        0.0592
     13 CL         63.8438   81.4987   13.6433 Cl      1  UNL1       -0.0822
     14 C          62.9740   83.6108   12.4053 C.ar    1  UNL1        0.0324
     15 C          62.8793   85.1035   12.2923 C.ar    1  UNL1        0.1081
     16 N          62.1042   85.7228   11.1672 N.ar    1  UNL1       -0.1476
     17 N          60.8778   86.5754   11.3059 N.ar    1  UNL1       -0.1447
     18 C          60.4350   86.9778    9.9304 C.ar    1  UNL1        0.1446
     19 C          61.3877   86.3740    8.9416 C.ar    1  UNL1        0.1446
     20 N          62.4193   85.5984    9.7060 N.ar    1  UNL1       -0.1447
     21 C          63.2757   90.4552   12.9652 C.3     1  UNL1        0.0510
     22 C          64.4074   91.3541   12.5639 C.ar    1  UNL1        0.0086
     23 C          65.4717   91.7100   13.5591 C.ar    1  UNL1        0.0189
     24 C          66.6035   92.6089   13.1578 C.ar    1  UNL1        0.1027
     25 C          66.6709   93.1520   11.7612 C.ar    1  UNL1        0.0232
     26 C          65.6064   92.7962   10.7659 C.ar    1  UNL1        0.0309
     27 C          64.4747   91.8973   11.1673 C.ar    1  UNL1        0.1363
     28 F          63.4104   91.5414   10.1720 F       1  UNL1       -0.2045
     29 N          67.6678   92.9648   14.1530 N.ar    1  UNL1       -0.1478
     30 N          69.0831   92.4679   14.1459 N.ar    1  UNL1       -0.1447
     31 C          69.7937   93.0759   15.3186 C.ar    1  UNL1        0.1446
     32 C          68.8176   93.9487   16.0505 C.ar    1  UNL1        0.1446
     33 N          67.5038   93.8799   15.3301 N.ar    1  UNL1       -0.1447
@<TRIPOS>BOND
     1     1     2    2
     2     2     9    1
     3     9    10   ar
     4    10    11   ar
     5    11    12   ar
     6    12    13    1
     7    12    14   ar
     8    14    15   ar
     9    15    16    1
    10    16    17   ar
    11    17    18   ar
    12    18    19   ar
    13    19    20   ar
    14     2     3   am
    15     3     4    1
    16     4     5    1
    17     5     6    1
    18     6     7    1
    19     7     8    1
    20     8    21    1
    21    21    22    1
    22    22    23   ar
    23    23    24   ar
    24    24    29    1
    25    29    30   ar
    26    30    31   ar
    27    31    32   ar
    28    32    33   ar
    29    24    25   ar
    30    25    26   ar
    31    26    27   ar
    32    27    28    1
    33    15     9   ar
    34    20    16   ar
    35     8     3    1
    36    27    22   ar
    37    33    29   ar
@<TRIPOS>MOLECULE
*****
 33 37 0 0 0
SMALL
GASTEIGER

@<TRIPOS>ATOM
      1 O          63.6251   88.6394   12.3587 O.2     1  UNL1       -0.2699
      2 C          63.5256   87.5571   13.3926 C.2     1  UNL1        0.2506
      3 N          63.4075   87.9153   14.8444 N.am    1  UNL1       -0.2723
      4 C          63.3080   86.8331   15.8782 C.3     1  UNL1        0.1257
      5 C          63.1899   87.1914   17.3301 C.3     1  UNL1        0.1637
      6 O          63.1713   88.6318   17.7480 O.3     1  UNL1       -0.3502
      7 C          63.2708   89.7141   16.7141 C.3     1  UNL1        0.1622
      8 C          63.3889   89.3559   15.2624 C.3     1  UNL1        0.1097
      9 C          63.5442   86.1166   12.9746 C.ar    1  UNL1        0.0730
     10 C          64.3922   85.1300   13.7213 C.ar    1  UNL1        0.0070
     11 C          64.4108   83.6895   13.3033 C.ar    1  UNL1        0.0116
     12 C          63.5815   83.2357   12.1387 C.ar    1  UNL1        0.0592
     13 CL         63.6001   81.7952   11.7207 Cl      1  UNL1       -0.0822
     14 C          62.7336   84.2224   11.3921 C.ar    1  UNL1        0.0324
     15 C          62.7149   85.6628   11.8100 C.ar    1  UNL1        0.1081
     16 N          61.8670   86.6495   11.0634 N.ar    1  UNL1       -0.1476
     17 N          60.6168   87.3021   11.5742 N.ar    1  UNL1       -0.1447
     18 C          60.0975   88.2128   10.5013 C.ar    1  UNL1        0.1446
     19 C          61.0268   88.1230    9.3273 C.ar    1  UNL1        0.1446
     20 N          62.1204   87.1569    9.6747 N.ar    1  UNL1       -0.1447
     21 C          63.4884   90.4381   14.2285 C.3     1  UNL1        0.0510
     22 C          64.7114   91.3042   14.1647 C.ar    1  UNL1        0.0086
     23 C          65.3776   91.5652   12.8463 C.ar    1  UNL1        0.0189
     24 C          66.6006   92.4313   12.7825 C.ar    1  UNL1        0.1027
     25 C          67.1575   93.0364   14.0370 C.ar    1  UNL1        0.0232
     26 C          66.4912   92.7754   15.3554 C.ar    1  UNL1        0.0309
     27 C          65.2682   91.9093   15.4192 C.ar    1  UNL1        0.1363
     28 F          64.6020   91.6483   16.7375 F       1  UNL1       -0.2045
     29 N          67.2668   92.6923   11.4641 N.ar    1  UNL1       -0.1478
     30 N          68.3969   91.9009   10.8754 N.ar    1  UNL1       -0.1447
     31 C          68.7484   92.5100    9.5505 C.ar    1  UNL1        0.1446
     32 C          67.8355   93.6778    9.3203 C.ar    1  UNL1        0.1446
     33 N          66.9199   93.7905   10.5030 N.ar    1  UNL1       -0.1447
@<TRIPOS>BOND
     1     1     2    2
     2     2     9    1
     3     9    10   ar
     4    10    11   ar
     5    11    12   ar
     6    12    13    1
     7    12    14   ar
     8    14    15   ar
     9    15    16    1
    10    16    17   ar
    11    17    18   ar
    12    18    19   ar
    13    19    20   ar
    14     2     3   am
    15     3     4    1
    16     4     5    1
    17     5     6    1
    18     6     7    1
    19     7     8    1
    20     8    21    1
    21    21    22    1
    22    22    23   ar
    23    23    24   ar
    24    24    29    1
    25    29    30   ar
    26    30    31   ar
    27    31    32   ar
    28    32    33   ar
    29    24    25   ar
    30    25    26   ar
    31    26    27   ar
    32    27    28    1
    33    15     9   ar
    34    20    16   ar
    35     8     3    1
    36    27    22   ar
    37    33    29   ar
@<TRIPOS>MOLECULE
*****
 33 37 0 0 0
SMALL
GASTEIGER

@<TRIPOS>ATOM
      1 O          62.5106   90.2061   11.6084 O.2     1  UNL1       -0.2699
      2 C          62.6426   88.7123   11.6400 C.2     1  UNL1        0.2506
      3 N          63.3405   88.0452   12.7881 N.am    1  UNL1       -0.2723
      4 C          63.4725   86.5514   12.8197 C.3     1  UNL1        0.1257
      5 C          64.1704   85.8843   13.9678 C.3     1  UNL1        0.1637
      6 O          64.7362   86.7111   15.0841 O.3     1  UNL1       -0.3502
      7 C          64.6042   88.2049   15.0525 C.3     1  UNL1        0.1622
      8 C          63.9063   88.8720   13.9045 C.3     1  UNL1        0.1097
      9 C          62.0767   87.8855   10.5236 C.ar    1  UNL1        0.0730
     10 C          62.9585   86.9281    9.7780 C.ar    1  UNL1        0.0070
     11 C          62.3927   86.1014    8.6617 C.ar    1  UNL1        0.0116
     12 C          60.9452   86.2320    8.2909 C.ar    1  UNL1        0.0592
     13 CL         60.3793   85.4052    7.1745 Cl      1  UNL1       -0.0822
     14 C          60.0634   87.1894    9.0365 C.ar    1  UNL1        0.0324
     15 C          60.6292   88.0161   10.1529 C.ar    1  UNL1        0.1081
     16 N          59.7474   88.9735   10.8985 N.ar    1  UNL1       -0.1476
     17 N          58.9428   88.6589   12.1247 N.ar    1  UNL1       -0.1447
     18 C          58.2136   89.9045   12.5329 C.ar    1  UNL1        0.1446
     19 C          58.5675   90.9890   11.5589 C.ar    1  UNL1        0.1446
     20 N          59.5155   90.4136   10.5488 N.ar    1  UNL1       -0.1447
     21 C          63.7743   90.3658   13.8728 C.3     1  UNL1        0.0510
     22 C          65.0022   91.2270   13.8510 C.ar    1  UNL1        0.0086
     23 C          65.6439   91.5852   12.5434 C.ar    1  UNL1        0.0189
     24 C          66.8719   92.4464   12.5215 C.ar    1  UNL1        0.1027
     25 C          67.4582   92.9494   13.8073 C.ar    1  UNL1        0.0232
     26 C          66.8164   92.5911   15.1150 C.ar    1  UNL1        0.0309
     27 C          65.5885   91.7300   15.1368 C.ar    1  UNL1        0.1363
     28 F          64.9468   91.3718   16.4444 F       1  UNL1       -0.2045
     29 N          67.5136   92.8046   11.2139 N.ar    1  UNL1       -0.1478
     30 N          67.2993   94.0747   10.4453 N.ar    1  UNL1       -0.1447
     31 C          68.1355   94.0107    9.2017 C.ar    1  UNL1        0.1446
     32 C          68.8666   92.7008    9.2016 C.ar    1  UNL1        0.1446
     33 N          68.4822   91.9555   10.4453 N.ar    1  UNL1       -0.1447
@<TRIPOS>BOND
     1     1     2    2
     2     2     9    1
     3     9    10   ar
     4    10    11   ar
     5    11    12   ar
     6    12    13    1
     7    12    14   ar
     8    14    15   ar
     9    15    16    1
    10    16    17   ar
    11    17    18   ar
    12    18    19   ar
    13    19    20   ar
    14     2     3   am
    15     3     4    1
    16     4     5    1
    17     5     6    1
    18     6     7    1
    19     7     8    1
    20     8    21    1
    21    21    22    1
    22    22    23   ar
    23    23    24   ar
    24    24    29    1
    25    29    30   ar
    26    30    31   ar
    27    31    32   ar
    28    32    33   ar
    29    24    25   ar
    30    25    26   ar
    31    26    27   ar
    32    27    28    1
    33    15     9   ar
    34    20    16   ar
    35     8     3    1
    36    27    22   ar
    37    33    29   ar
@<TRIPOS>MOLECULE
*****
 33 37 0 0 0
SMALL
GASTEIGER

@<TRIPOS>ATOM
      1 O          62.9605   87.8550   12.5681 O.2     1  UNL1       -0.2699
      2 C          62.7449   89.0095   11.6350 C.2     1  UNL1        0.2506
      3 N          61.6984   88.9229   10.5640 N.am    1  UNL1       -0.2723
      4 C          61.4828   90.0775    9.6309 C.3     1  UNL1        0.1257
      5 C          60.4362   89.9909    8.5599 C.3     1  UNL1        0.1637
      6 O          59.6051   88.7498    8.4219 O.3     1  UNL1       -0.3502
      7 C          59.8207   87.5953    9.3550 C.3     1  UNL1        0.1622
      8 C          60.8673   87.6818   10.4260 C.3     1  UNL1        0.1097
      9 C          63.5761   90.2506   11.7730 C.ar    1  UNL1        0.0730
     10 C          63.8761   91.0903   10.5668 C.ar    1  UNL1        0.0070
     11 C          64.7071   92.3313   10.7047 C.ar    1  UNL1        0.0116
     12 C          65.2382   92.7327   12.0489 C.ar    1  UNL1        0.0592
     13 CL         66.0693   93.9738   12.1869 Cl      1  UNL1       -0.0822
     14 C          64.9382   91.8931   13.2551 C.ar    1  UNL1        0.0324
     15 C          64.1071   90.6520   13.1172 C.ar    1  UNL1        0.1081
     16 N          63.8071   89.8123   14.3234 N.ar    1  UNL1       -0.1476
     17 N          62.7546   90.0943   15.3543 N.ar    1  UNL1       -0.1447
     18 C          62.8039   88.9995   16.3785 C.ar    1  UNL1        0.1446
     19 C          63.8869   88.0410   15.9807 C.ar    1  UNL1        0.1446
     20 N          64.5069   88.5433   14.7105 N.ar    1  UNL1       -0.1447
     21 C          61.0828   86.5273   11.3591 C.3     1  UNL1        0.0510
     22 C          61.9782   85.3936   10.9552 C.ar    1  UNL1        0.0086
     23 C          62.1123   84.1914   11.8420 C.ar    1  UNL1        0.0189
     24 C          63.0077   83.0576   11.4382 C.ar    1  UNL1        0.1027
     25 C          63.7689   83.1263   10.1476 C.ar    1  UNL1        0.0232
     26 C          63.6348   84.3286    9.2607 C.ar    1  UNL1        0.0309
     27 C          62.7394   85.4623    9.6646 C.ar    1  UNL1        0.1363
     28 F          62.6053   86.6646    8.7778 F       1  UNL1       -0.2045
     29 N          63.1418   81.8553   12.3250 N.ar    1  UNL1       -0.1478
     30 N          63.9508   81.7754   13.5856 N.ar    1  UNL1       -0.1447
     31 C          63.7994   80.3926   14.1466 C.ar    1  UNL1        0.1446
     32 C          62.8968   79.6178   13.2328 C.ar    1  UNL1        0.1446
     33 N          62.4904   80.5218   12.1070 N.ar    1  UNL1       -0.1447
@<TRIPOS>BOND
     1     1     2    2
     2     2     9    1
     3     9    10   ar
     4    10    11   ar
     5    11    12   ar
     6    12    13    1
     7    12    14   ar
     8    14    15   ar
     9    15    16    1
    10    16    17   ar
    11    17    18   ar
    12    18    19   ar
    13    19    20   ar
    14     2     3   am
    15     3     4    1
    16     4     5    1
    17     5     6    1
    18     6     7    1
    19     7     8    1
    20     8    21    1
    21    21    22    1
    22    22    23   ar
    23    23    24   ar
    24    24    29    1
    25    29    30   ar
    26    30    31   ar
    27    31    32   ar
    28    32    33   ar
    29    24    25   ar
    30    25    26   ar
    31    26    27   ar
    32    27    28    1
    33    15     9   ar
    34    20    16   ar
    35     8     3    1
    36    27    22   ar
    37    33    29   ar
@<TRIPOS>MOLECULE
*****
 33 37 0 0 0
SMALL
GASTEIGER

@<TRIPOS>ATOM
      1 O          65.0997   85.8662   13.4159 O.2     1  UNL1       -0.2699
      2 C          64.0426   85.1558   14.2084 C.2     1  UNL1        0.2506
      3 N          63.3865   85.8432   15.3690 N.am    1  UNL1       -0.2723
      4 C          62.3295   85.1328   16.1615 C.3     1  UNL1        0.1257
      5 C          61.6733   85.8203   17.3221 C.3     1  UNL1        0.1637
      6 O          62.0742   87.2180   17.6902 O.3     1  UNL1       -0.3502
      7 C          63.1312   87.9284   16.8977 C.3     1  UNL1        0.1622
      8 C          63.7874   87.2410   15.7371 C.3     1  UNL1        0.1097
      9 C          63.6417   83.7580   13.8403 C.ar    1  UNL1        0.0730
     10 C          64.0358   82.6085   14.7198 C.ar    1  UNL1        0.0070
     11 C          63.6349   81.2108   14.3517 C.ar    1  UNL1        0.0116
     12 C          62.8401   80.9624   13.1042 C.ar    1  UNL1        0.0592
     13 CL         62.4392   79.5646   12.7360 Cl      1  UNL1       -0.0822
     14 C          62.4460   82.1119   12.2247 C.ar    1  UNL1        0.0324
     15 C          62.8469   83.5097   12.5927 C.ar    1  UNL1        0.1081
     16 N          62.4529   84.6591   11.7132 N.ar    1  UNL1       -0.1476
     17 N          61.5757   85.8104   12.1071 N.ar    1  UNL1       -0.1447
     18 C          61.4476   86.7219   10.9227 C.ar    1  UNL1        0.1446
     19 C          62.2455   86.1339    9.7968 C.ar    1  UNL1        0.1446
     20 N          62.8668   84.8591   10.2854 N.ar    1  UNL1       -0.1447
     21 C          64.8444   87.9514   14.9446 C.3     1  UNL1        0.0510
     22 C          64.4775   89.1294   14.0917 C.ar    1  UNL1        0.0086
     23 C          63.3482   89.0221   13.1104 C.ar    1  UNL1        0.0189
     24 C          62.9812   90.2002   12.2574 C.ar    1  UNL1        0.1027
     25 C          63.7437   91.4856   12.3858 C.ar    1  UNL1        0.0232
     26 C          64.8731   91.5929   13.3671 C.ar    1  UNL1        0.0309
     27 C          65.2400   90.4148   14.2200 C.ar    1  UNL1        0.1363
     28 F          66.3694   90.5221   15.2013 F       1  UNL1       -0.2045
     29 N          61.8519   90.0929   11.2761 N.ar    1  UNL1       -0.1478
     30 N          61.9866   89.9178    9.7925 N.ar    1  UNL1       -0.1447
     31 C          60.6075   89.8585    9.2056 C.ar    1  UNL1        0.1446
     32 C          59.6203   89.9971   10.3265 C.ar    1  UNL1        0.1446
     33 N          60.3894   90.1419   11.6061 N.ar    1  UNL1       -0.1447
@<TRIPOS>BOND
     1     1     2    2
     2     2     9    1
     3     9    10   ar
     4    10    11   ar
     5    11    12   ar
     6    12    13    1
     7    12    14   ar
     8    14    15   ar
     9    15    16    1
    10    16    17   ar
    11    17    18   ar
    12    18    19   ar
    13    19    20   ar
    14     2     3   am
    15     3     4    1
    16     4     5    1
    17     5     6    1
    18     6     7    1
    19     7     8    1
    20     8    21    1
    21    21    22    1
    22    22    23   ar
    23    23    24   ar
    24    24    29    1
    25    29    30   ar
    26    30    31   ar
    27    31    32   ar
    28    32    33   ar
    29    24    25   ar
    30    25    26   ar
    31    26    27   ar
    32    27    28    1
    33    15     9   ar
    34    20    16   ar
    35     8     3    1
    36    27    22   ar
    37    33    29   ar
@<TRIPOS>MOLECULE
*****
 33 37 0 0 0
SMALL
GASTEIGER

@<TRIPOS>ATOM
      1 O          64.3169   91.9598   11.8883 O.2     1  UNL1       -0.2699
      2 C          64.8741   91.2612   13.0930 C.2     1  UNL1        0.2506
      3 N          64.4701   89.8484   13.3944 N.am    1  UNL1       -0.2723
      4 C          65.0273   89.1497   14.5991 C.3     1  UNL1        0.1257
      5 C          64.6233   87.7369   14.9005 C.3     1  UNL1        0.1637
      6 O          63.6620   87.0228   13.9971 O.3     1  UNL1       -0.3502
      7 C          63.1048   87.7215   12.7924 C.3     1  UNL1        0.1622
      8 C          63.5088   89.1343   12.4910 C.3     1  UNL1        0.1097
      9 C          65.8354   91.9753   13.9964 C.ar    1  UNL1        0.0730
     10 C          65.6223   91.9593   15.4811 C.ar    1  UNL1        0.0070
     11 C          66.5835   92.6734   16.3845 C.ar    1  UNL1        0.0116
     12 C          67.7578   93.4035   15.8032 C.ar    1  UNL1        0.0592
     13 CL         68.7190   94.1177   16.7065 Cl      1  UNL1       -0.0822
     14 C          67.9708   93.4195   14.3184 C.ar    1  UNL1        0.0324
     15 C          67.0096   92.7054   13.4151 C.ar    1  UNL1        0.1081
     16 N          67.2227   92.7214   11.9304 N.ar    1  UNL1       -0.1476
     17 N          66.6792   93.7399   10.9726 N.ar    1  UNL1       -0.1447
     18 C          67.1373   93.3697    9.5930 C.ar    1  UNL1        0.1446
     19 C          67.9639   92.1225    9.6982 C.ar    1  UNL1        0.1446
     20 N          68.0166   91.7218   11.1427 N.ar    1  UNL1       -0.1447
     21 C          62.9516   89.8329   11.2863 C.3     1  UNL1        0.0510
     22 C          61.8756   89.1791   10.4710 C.ar    1  UNL1        0.0086
     23 C          62.2014   87.9932    9.6124 C.ar    1  UNL1        0.0189
     24 C          61.1254   87.3393    8.7970 C.ar    1  UNL1        0.1027
     25 C          59.7237   87.8715    8.8403 C.ar    1  UNL1        0.0232
     26 C          59.3979   89.0575    9.6989 C.ar    1  UNL1        0.0309
     27 C          60.4739   89.7113   10.5143 C.ar    1  UNL1        0.1363
     28 F          60.1481   90.8973   11.3729 F       1  UNL1       -0.2045
     29 N          61.4512   86.1533    7.9384 N.ar    1  UNL1       -0.1478
     30 N          60.5171   85.4751    6.9806 N.ar    1  UNL1       -0.1447
     31 C          61.2569   84.3399    6.3370 C.ar    1  UNL1        0.1446
     32 C          62.6482   84.3166    6.8971 C.ar    1  UNL1        0.1446
     33 N          62.7683   85.4373    7.8868 N.ar    1  UNL1       -0.1447
@<TRIPOS>BOND
     1     1     2    2
     2     2     9    1
     3     9    10   ar
     4    10    11   ar
     5    11    12   ar
     6    12    13    1
     7    12    14   ar
     8    14    15   ar
     9    15    16    1
    10    16    17   ar
    11    17    18   ar
    12    18    19   ar
    13    19    20   ar
    14     2     3   am
    15     3     4    1
    16     4     5    1
    17     5     6    1
    18     6     7    1
    19     7     8    1
    20     8    21    1
    21    21    22    1
    22    22    23   ar
    23    23    24   ar
    24    24    29    1
    25    29    30   ar
    26    30    31   ar
    27    31    32   ar
    28    32    33   ar
    29    24    25   ar
    30    25    26   ar
    31    26    27   ar
    32    27    28    1
    33    15     9   ar
    34    20    16   ar
    35     8     3    1
    36    27    22   ar
    37    33    29   ar
