@<TRIPOS>MOLECULE
*****
 44 49 0 0 0
SMALL
GASTEIGER

@<TRIPOS>ATOM
      1 C          58.7447   86.6436    8.2403 C.3     1  UNL1        0.0323
      2 C          59.7992   87.5676    8.7733 C.ar    1  UNL1       -0.0083
      3 C          59.7906   89.0172    8.3879 C.ar    1  UNL1       -0.0018
      4 C          60.8451   89.9413    8.9210 C.ar    1  UNL1        0.0144
      5 C          61.9083   89.4157    9.8394 C.ar    1  UNL1        0.0518
      6 C          61.9169   87.9661   10.2247 C.ar    1  UNL1        0.0290
      7 C          60.8624   87.0420    9.6917 C.ar    1  UNL1        0.0466
      8 N          62.9629   90.3397   10.3724 N.am    1  UNL1       -0.2803
      9 C          63.2670   90.3629   11.8410 C.2     1  UNL1        0.2496
     10 O          62.5166   89.4621   12.7767 O.2     1  UNL1       -0.2698
     11 H          63.4554   90.9310    9.7583 H       1  UNL1        0.1552
     12 C          64.3215   91.2869   12.3740 C.ar    1  UNL1        0.0571
     13 C          64.7971   91.1452   13.7896 C.ar    1  UNL1        0.0342
     14 C          65.8516   92.0692   14.3226 C.ar    1  UNL1        0.1415
     15 F          66.3271   91.9275   15.7381 F       1  UNL1       -0.2041
     16 C          66.4306   93.1350   13.4401 C.ar    1  UNL1        0.0441
     17 C          65.9551   93.2767   12.0246 C.ar    1  UNL1        0.0504
     18 C          64.9005   92.3527   11.4915 C.ar    1  UNL1        0.0192
     19 N          66.5342   94.3425   11.1420 N.pl3   1  UNL1       -0.3027
     20 C          66.2764   95.7888   11.4447 C.3     1  UNL1        0.1231
     21 C          66.8554   96.8546   10.5622 C.3     1  UNL1        0.1636
     22 O          67.6922   96.4740    9.3769 O.3     1  UNL1       -0.3501
     23 C          67.9500   95.0276    9.0742 C.3     1  UNL1        0.1636
     24 C          67.3710   93.9619    9.9567 C.3     1  UNL1        0.1231
     25 N          60.8710   85.5924   10.0771 N.pl3   1  UNL1       -0.2969
     26 H          60.0388   85.1563   10.3713 H       1  UNL1        0.1536
     27 C          62.1476   84.8072   10.0143 C.ar    1  UNL1        0.1515
     28 N          62.6706   84.3305    8.6918 N.ar    1  UNL1       -0.2060
     29 C          63.9471   83.5454    8.6290 C.ar    1  UNL1        0.2211
     30 N          64.7007   83.2370    9.8888 N.ar    1  UNL1       -0.1422
     31 N          64.1777   83.7137   11.2113 N.ar    1  UNL1       -0.2242
     32 C          64.6987   83.5635   12.6099 C.ar    1  UNL1        0.1034
     33 C          63.7442   84.2559   13.5370 C.ar    1  UNL1        0.0557
     34 C          62.6332   84.8339   12.7115 C.ar    1  UNL1        0.0032
     35 C          61.4603   85.6107   13.2319 C.3     1  UNL1        0.0329
     36 C          62.9012   84.4988   11.2741 C.ar    1  UNL1        0.1106
     37 C          63.8773   84.3531   15.0280 C.2     1  UNL1        0.1968
     38 O          64.2604   83.1429   15.8272 O.2     1  UNL1       -0.2865
     39 C          63.6274   85.6604   15.7197 C.ar    1  UNL1        0.0390
     40 C          64.1516   86.9347   15.1270 C.ar    1  UNL1        0.0032
     41 C          63.9017   88.2420   15.8187 C.ar    1  UNL1        0.0001
     42 C          63.1275   88.2750   17.1031 C.ar    1  UNL1        0.0000
     43 C          62.6033   87.0007   17.6957 C.ar    1  UNL1        0.0001
     44 C          62.8533   85.6933   17.0040 C.ar    1  UNL1        0.0032
@<TRIPOS>BOND
     1     1     2    1
     2     2     3   ar
     3     3     4   ar
     4     4     5   ar
     5     5     8    1
     6     8     9   am
     7     9    10    2
     8     9    12    1
     9    12    13   ar
    10    13    14   ar
    11    14    15    1
    12    14    16   ar
    13    16    17   ar
    14    17    19    1
    15    19    20    1
    16    20    21    1
    17    21    22    1
    18    22    23    1
    19    23    24    1
    20    17    18   ar
    21     5     6   ar
    22     6     7   ar
    23     7    25    1
    24    25    27    1
    25    27    28   ar
    26    28    29   ar
    27    29    30   ar
    28    30    31   ar
    29    31    32   ar
    30    32    33   ar
    31    33    37    1
    32    37    38    2
    33    37    39    1
    34    39    40   ar
    35    40    41   ar
    36    41    42   ar
    37    42    43   ar
    38    43    44   ar
    39    33    34   ar
    40    34    35    1
    41    34    36   ar
    42     7     2   ar
    43    36    27   ar
    44    18    12   ar
    45    36    31   ar
    46    24    19    1
    47    44    39   ar
    48     8    11    1
    49    25    26    1
@<TRIPOS>MOLECULE
*****
 44 49 0 0 0
SMALL
GASTEIGER

@<TRIPOS>ATOM
      1 C          56.8206   89.7288    6.4743 C.3     1  UNL1        0.0323
      2 C          57.9949   90.3632    5.7899 C.ar    1  UNL1       -0.0083
      3 C          57.7806   91.4885    4.8214 C.ar    1  UNL1       -0.0018
      4 C          58.9550   92.1228    4.1369 C.ar    1  UNL1        0.0144
      5 C          60.3436   91.6319    4.4209 C.ar    1  UNL1        0.0518
      6 C          60.5579   90.5067    5.3893 C.ar    1  UNL1        0.0290
      7 C          59.3836   89.8723    6.0738 C.ar    1  UNL1        0.0466
      8 N          61.5180   92.2663    3.7364 N.am    1  UNL1       -0.2803
      9 C          61.3718   92.8104    2.3463 C.2     1  UNL1        0.2496
     10 O          60.0513   92.7202    1.6405 O.2     1  UNL1       -0.2698
     11 H          62.3847   92.3255    4.1996 H       1  UNL1        0.1552
     12 C          62.5462   93.4447    1.6619 C.ar    1  UNL1        0.0571
     13 C          63.6246   94.0983    2.4743 C.ar    1  UNL1        0.0342
     14 C          64.7989   94.7326    1.7898 C.ar    1  UNL1        0.1415
     15 F          65.8773   95.3862    2.6022 F       1  UNL1       -0.2041
     16 C          64.8950   94.7134    0.2930 C.ar    1  UNL1        0.0441
     17 C          63.8167   94.0598   -0.5193 C.ar    1  UNL1        0.0504
     18 C          62.6422   93.4254    0.1651 C.ar    1  UNL1        0.0192
     19 N          63.9127   94.0405   -2.0161 N.pl3   1  UNL1       -0.3027
     20 C          64.5346   95.1961   -2.7427 C.3     1  UNL1        0.1231
     21 C          64.6307   95.1768   -4.2395 C.3     1  UNL1        0.1636
     22 O          64.1048   94.0020   -5.0097 O.3     1  UNL1       -0.3501
     23 C          63.4829   92.8464   -4.2832 C.3     1  UNL1        0.1636
     24 C          63.3868   92.8657   -2.7864 C.3     1  UNL1        0.1231
     25 N          59.5979   88.7470    7.0422 N.pl3   1  UNL1       -0.2969
     26 H          59.4591   87.8161    6.7537 H       1  UNL1        0.1536
     27 C          60.0238   89.0403    8.4504 C.ar    1  UNL1        0.1515
     28 N          59.6489   90.3435    9.0913 N.ar    1  UNL1       -0.2060
     29 C          60.0748   90.6367   10.4994 C.ar    1  UNL1        0.2211
     30 N          60.8756   89.6266   11.2664 N.ar    1  UNL1       -0.1422
     31 N          61.2505   88.3233   10.6255 N.ar    1  UNL1       -0.2242
     32 C          62.0277   87.1436   11.1298 C.ar    1  UNL1        0.1034
     33 C          62.0821   86.1214   10.0334 C.ar    1  UNL1        0.0557
     34 C          61.3386   86.6692    8.8515 C.ar    1  UNL1        0.0032
     35 C          61.1433   85.9777    7.5348 C.3     1  UNL1        0.0329
     36 C          60.8246   88.0301    9.2174 C.ar    1  UNL1        0.1106
     37 C          62.7610   84.7857   10.1062 C.2     1  UNL1        0.1968
     38 O          63.4685   84.2374    8.9026 O.2     1  UNL1       -0.2865
     39 C          62.7322   83.9984   11.3826 C.ar    1  UNL1        0.0390
     40 C          62.7279   82.4990   11.3391 C.ar    1  UNL1        0.0032
     41 C          62.6992   81.7117   12.6155 C.ar    1  UNL1        0.0001
     42 C          62.6748   82.4238   13.9355 C.ar    1  UNL1        0.0000
     43 C          62.6791   83.9231   13.9791 C.ar    1  UNL1        0.0001
     44 C          62.7078   84.7104   12.7026 C.ar    1  UNL1        0.0032
@<TRIPOS>BOND
     1     1     2    1
     2     2     3   ar
     3     3     4   ar
     4     4     5   ar
     5     5     8    1
     6     8     9   am
     7     9    10    2
     8     9    12    1
     9    12    13   ar
    10    13    14   ar
    11    14    15    1
    12    14    16   ar
    13    16    17   ar
    14    17    19    1
    15    19    20    1
    16    20    21    1
    17    21    22    1
    18    22    23    1
    19    23    24    1
    20    17    18   ar
    21     5     6   ar
    22     6     7   ar
    23     7    25    1
    24    25    27    1
    25    27    28   ar
    26    28    29   ar
    27    29    30   ar
    28    30    31   ar
    29    31    32   ar
    30    32    33   ar
    31    33    37    1
    32    37    38    2
    33    37    39    1
    34    39    40   ar
    35    40    41   ar
    36    41    42   ar
    37    42    43   ar
    38    43    44   ar
    39    33    34   ar
    40    34    35    1
    41    34    36   ar
    42     7     2   ar
    43    36    27   ar
    44    18    12   ar
    45    36    31   ar
    46    24    19    1
    47    44    39   ar
    48     8    11    1
    49    25    26    1
@<TRIPOS>MOLECULE
*****
 44 49 0 0 0
SMALL
GASTEIGER

@<TRIPOS>ATOM
      1 C          61.9725   84.2560   16.2479 C.3     1  UNL1        0.0323
      2 C          62.6837   85.5669   16.0872 C.ar    1  UNL1       -0.0083
      3 C          62.0455   86.8317   16.5801 C.ar    1  UNL1       -0.0018
      4 C          62.7567   88.1427   16.4194 C.ar    1  UNL1        0.0144
      5 C          64.1060   88.1887   15.7658 C.ar    1  UNL1        0.0518
      6 C          64.7441   86.9239   15.2729 C.ar    1  UNL1        0.0290
      7 C          64.0330   85.6130   15.4336 C.ar    1  UNL1        0.0466
      8 N          64.8171   89.4996   15.6050 N.am    1  UNL1       -0.2803
      9 C          64.8307   90.1870   14.2719 C.2     1  UNL1        0.2496
     10 O          64.1331   89.5636   13.0995 O.2     1  UNL1       -0.2698
     11 H          65.2750   89.9089   16.3745 H       1  UNL1        0.1552
     12 C          65.5419   91.4979   14.1112 C.ar    1  UNL1        0.0571
     13 C          66.2152   92.1354   15.2904 C.ar    1  UNL1        0.0342
     14 C          66.9263   93.4462   15.1297 C.ar    1  UNL1        0.1415
     15 F          67.5996   94.0837   16.3088 F       1  UNL1       -0.2041
     16 C          66.9642   94.1197   13.7899 C.ar    1  UNL1        0.0441
     17 C          66.2910   93.4822   12.6108 C.ar    1  UNL1        0.0504
     18 C          65.5798   92.1713   12.7714 C.ar    1  UNL1        0.0192
     19 N          66.3289   94.1557   11.2710 N.pl3   1  UNL1       -0.3027
     20 C          66.9697   93.4664   10.1030 C.3     1  UNL1        0.1231
     21 C          67.0076   94.1398    8.7632 C.3     1  UNL1        0.1636
     22 O          66.4047   95.5025    8.5914 O.3     1  UNL1       -0.3501
     23 C          65.7638   96.1918    9.7594 C.3     1  UNL1        0.1636
     24 C          65.7259   95.5184   11.0992 C.3     1  UNL1        0.1231
     25 N          64.6712   84.3482   14.9407 N.pl3   1  UNL1       -0.2969
     26 H          65.6085   84.1492   15.1668 H       1  UNL1        0.1536
     27 C          63.8812   83.3865   14.1033 C.ar    1  UNL1        0.1515
     28 N          63.7226   81.9620   14.5454 N.ar    1  UNL1       -0.2060
     29 C          62.9327   81.0004   13.7079 C.ar    1  UNL1        0.2211
     30 N          62.3014   81.4633   12.4285 N.ar    1  UNL1       -0.1422
     31 N          62.4600   82.8879   11.9864 N.ar    1  UNL1       -0.2242
     32 C          61.9563   83.6271   10.7823 C.ar    1  UNL1        0.1034
     33 C          62.4350   85.0457   10.8756 C.ar    1  UNL1        0.0557
     34 C          63.2345   85.1831   12.1372 C.ar    1  UNL1        0.0032
     35 C          63.9014   86.4344   12.6265 C.3     1  UNL1        0.0329
     36 C          63.2499   83.8495   12.8238 C.ar    1  UNL1        0.1106
     37 C          62.1620   86.1355    9.8816 C.2     1  UNL1        0.1968
     38 O          62.4123   85.8989    8.4216 O.2     1  UNL1       -0.2865
     39 C          61.6388   87.4617   10.3475 C.ar    1  UNL1        0.0390
     40 C          62.4231   88.7125   10.0824 C.ar    1  UNL1        0.0032
     41 C          61.8999   90.0388   10.5484 C.ar    1  UNL1        0.0001
     42 C          60.5922   90.1143   11.2794 C.ar    1  UNL1        0.0000
     43 C          59.8078   88.8635   11.5445 C.ar    1  UNL1        0.0001
     44 C          60.3311   87.5372   11.0785 C.ar    1  UNL1        0.0032
@<TRIPOS>BOND
     1     1     2    1
     2     2     3   ar
     3     3     4   ar
     4     4     5   ar
     5     5     8    1
     6     8     9   am
     7     9    10    2
     8     9    12    1
     9    12    13   ar
    10    13    14   ar
    11    14    15    1
    12    14    16   ar
    13    16    17   ar
    14    17    19    1
    15    19    20    1
    16    20    21    1
    17    21    22    1
    18    22    23    1
    19    23    24    1
    20    17    18   ar
    21     5     6   ar
    22     6     7   ar
    23     7    25    1
    24    25    27    1
    25    27    28   ar
    26    28    29   ar
    27    29    30   ar
    28    30    31   ar
    29    31    32   ar
    30    32    33   ar
    31    33    37    1
    32    37    38    2
    33    37    39    1
    34    39    40   ar
    35    40    41   ar
    36    41    42   ar
    37    42    43   ar
    38    43    44   ar
    39    33    34   ar
    40    34    35    1
    41    34    36   ar
    42     7     2   ar
    43    36    27   ar
    44    18    12   ar
    45    36    31   ar
    46    24    19    1
    47    44    39   ar
    48     8    11    1
    49    25    26    1
@<TRIPOS>MOLECULE
*****
 44 49 0 0 0
SMALL
GASTEIGER

@<TRIPOS>ATOM
      1 C          60.0487   90.8116    9.0799 C.3     1  UNL1        0.0323
      2 C          60.4682   89.4688    9.6001 C.ar    1  UNL1       -0.0083
      3 C          60.1211   88.2261    8.8350 C.ar    1  UNL1       -0.0018
      4 C          60.5407   86.8832    9.3553 C.ar    1  UNL1        0.0144
      5 C          61.3074   86.7830   10.6406 C.ar    1  UNL1        0.0518
      6 C          61.6545   88.0256   11.4057 C.ar    1  UNL1        0.0290
      7 C          61.2349   89.3685   10.8855 C.ar    1  UNL1        0.0466
      8 N          61.7270   85.4401   11.1609 N.am    1  UNL1       -0.2803
      9 C          62.6623   85.3475   12.3298 C.2     1  UNL1        0.2496
     10 O          63.1782   86.5977   12.9785 O.2     1  UNL1       -0.2698
     11 H          61.3884   84.6195   10.7351 H       1  UNL1        0.1552
     12 C          63.0819   84.0046   12.8500 C.ar    1  UNL1        0.0571
     13 C          63.7321   83.8918   14.1971 C.ar    1  UNL1        0.0342
     14 C          64.1516   82.5490   14.7173 C.ar    1  UNL1        0.1415
     15 F          64.8018   82.4362   16.0643 F       1  UNL1       -0.2041
     16 C          63.9210   81.3188   13.8905 C.ar    1  UNL1        0.0441
     17 C          63.2709   81.4316   12.5435 C.ar    1  UNL1        0.0504
     18 C          62.8513   82.7745   12.0232 C.ar    1  UNL1        0.0192
     19 N          63.0402   80.2015   11.7166 N.pl3   1  UNL1       -0.3027
     20 C          63.1629   80.2677   10.2232 C.3     1  UNL1        0.1231
     21 C          62.9323   79.0376    9.3963 C.3     1  UNL1        0.1636
     22 O          62.5790   77.7412   10.0630 O.3     1  UNL1       -0.3501
     23 C          62.4563   77.6749   11.5566 C.3     1  UNL1        0.1636
     24 C          62.6869   78.9050   12.3834 C.3     1  UNL1        0.1231
     25 N          61.5821   90.6111   11.6506 N.pl3   1  UNL1       -0.2969
     26 H          61.1580   91.4681   11.4162 H       1  UNL1        0.1536
     27 C          62.5755   90.5480   12.7728 C.ar    1  UNL1        0.1515
     28 N          62.1909   89.9219   14.0805 N.ar    1  UNL1       -0.2060
     29 C          63.1843   89.8588   15.2026 C.ar    1  UNL1        0.2211
     30 N          64.5622   90.4217   15.0170 N.ar    1  UNL1       -0.1422
     31 N          64.9468   91.0478   13.7093 N.ar    1  UNL1       -0.2242
     32 C          66.2215   91.6811   13.2361 C.ar    1  UNL1        0.1034
     33 C          66.0159   92.1357   11.8215 C.ar    1  UNL1        0.0557
     34 C          64.6142   91.7833   11.4204 C.ar    1  UNL1        0.0032
     35 C          63.9838   92.0554   10.0868 C.3     1  UNL1        0.0329
     36 C          63.9534   91.1109   12.5872 C.ar    1  UNL1        0.1106
     37 C          67.0335   92.8222   10.9593 C.2     1  UNL1        0.1968
     38 O          68.3575   92.1680   10.6962 O.2     1  UNL1       -0.2865
     39 C          66.7272   94.1628   10.3602 C.ar    1  UNL1        0.0390
     40 C          66.0313   95.2090   11.1795 C.ar    1  UNL1        0.0032
     41 C          65.7250   96.5496   10.5804 C.ar    1  UNL1        0.0001
     42 C          66.1145   96.8440    9.1620 C.ar    1  UNL1        0.0000
     43 C          66.8103   95.7978    8.3428 C.ar    1  UNL1        0.0001
     44 C          67.1167   94.4571    8.9419 C.ar    1  UNL1        0.0032
@<TRIPOS>BOND
     1     1     2    1
     2     2     3   ar
     3     3     4   ar
     4     4     5   ar
     5     5     8    1
     6     8     9   am
     7     9    10    2
     8     9    12    1
     9    12    13   ar
    10    13    14   ar
    11    14    15    1
    12    14    16   ar
    13    16    17   ar
    14    17    19    1
    15    19    20    1
    16    20    21    1
    17    21    22    1
    18    22    23    1
    19    23    24    1
    20    17    18   ar
    21     5     6   ar
    22     6     7   ar
    23     7    25    1
    24    25    27    1
    25    27    28   ar
    26    28    29   ar
    27    29    30   ar
    28    30    31   ar
    29    31    32   ar
    30    32    33   ar
    31    33    37    1
    32    37    38    2
    33    37    39    1
    34    39    40   ar
    35    40    41   ar
    36    41    42   ar
    37    42    43   ar
    38    43    44   ar
    39    33    34   ar
    40    34    35    1
    41    34    36   ar
    42     7     2   ar
    43    36    27   ar
    44    18    12   ar
    45    36    31   ar
    46    24    19    1
    47    44    39   ar
    48     8    11    1
    49    25    26    1
@<TRIPOS>MOLECULE
*****
 44 49 0 0 0
SMALL
GASTEIGER

@<TRIPOS>ATOM
      1 C          59.6743   90.3497    7.7234 C.3     1  UNL1        0.0323
      2 C          60.1367   89.0855    8.3853 C.ar    1  UNL1       -0.0083
      3 C          59.9459   87.7660    7.6980 C.ar    1  UNL1       -0.0018
      4 C          60.4084   86.5018    8.3599 C.ar    1  UNL1        0.0144
      5 C          61.0617   86.5572    9.7090 C.ar    1  UNL1        0.0518
      6 C          61.2526   87.8768   10.3962 C.ar    1  UNL1        0.0290
      7 C          60.7901   89.1409    9.7344 C.ar    1  UNL1        0.0466
      8 N          61.5242   85.2930   10.3709 N.am    1  UNL1       -0.2803
      9 C          62.3638   85.3601   11.6120 C.2     1  UNL1        0.2496
     10 O          62.7409   86.6913   12.1914 O.2     1  UNL1       -0.2698
     11 H          61.2767   84.4193    9.9907 H       1  UNL1        0.1552
     12 C          62.8262   84.0960   12.2739 C.ar    1  UNL1        0.0571
     13 C          63.4455   84.1474   13.6392 C.ar    1  UNL1        0.0342
     14 C          63.9079   82.8832   14.3010 C.ar    1  UNL1        0.1415
     15 F          64.5271   82.9346   15.6662 F       1  UNL1       -0.2041
     16 C          63.7511   81.5677   13.5976 C.ar    1  UNL1        0.0441
     17 C          63.1319   81.5163   12.2324 C.ar    1  UNL1        0.0504
     18 C          62.6695   82.7805   11.5705 C.ar    1  UNL1        0.0192
     19 N          62.9752   80.2007   11.5290 N.pl3   1  UNL1       -0.3027
     20 C          62.7003   78.9558   12.3192 C.3     1  UNL1        0.1231
     21 C          62.5435   77.6403   11.6158 C.3     1  UNL1        0.1636
     22 O          62.6617   77.5696   10.1222 O.3     1  UNL1       -0.3501
     23 C          62.9366   78.8146    9.3318 C.3     1  UNL1        0.1636
     24 C          63.0934   80.1302   10.0352 C.3     1  UNL1        0.1231
     25 N          60.9810   90.4605   10.4216 N.pl3   1  UNL1       -0.2969
     26 H          60.1980   90.9853   10.7059 H       1  UNL1        0.1536
     27 C          62.3649   90.9805   10.6758 C.ar    1  UNL1        0.1515
     28 N          63.1423   91.6189    9.5631 N.ar    1  UNL1       -0.2060
     29 C          64.5261   92.1388    9.8172 C.ar    1  UNL1        0.2211
     30 N          65.1325   92.0205   11.1841 N.ar    1  UNL1       -0.1422
     31 N          64.3551   91.3821   12.2968 N.ar    1  UNL1       -0.2242
     32 C          64.6888   91.1273   13.7368 C.ar    1  UNL1        0.1034
     33 C          63.5112   90.4498   14.3726 C.ar    1  UNL1        0.0557
     34 C          62.4497   90.2859   13.3256 C.ar    1  UNL1        0.0032
     35 C          61.1031   89.6564   13.5262 C.3     1  UNL1        0.0329
     36 C          62.9713   90.8621   12.0426 C.ar    1  UNL1        0.1106
     37 C          63.4125   90.0129   15.8043 C.2     1  UNL1        0.1968
     38 O          63.2786   91.0359   16.8931 O.2     1  UNL1       -0.2865
     39 C          63.4477   88.5530   16.1470 C.ar    1  UNL1        0.0390
     40 C          64.2269   87.6000   15.2900 C.ar    1  UNL1        0.0032
     41 C          64.2621   86.1401   15.6327 C.ar    1  UNL1        0.0001
     42 C          63.5181   85.6332   16.8326 C.ar    1  UNL1        0.0000
     43 C          62.7389   86.5863   17.6896 C.ar    1  UNL1        0.0001
     44 C          62.7037   88.0462   17.3468 C.ar    1  UNL1        0.0032
@<TRIPOS>BOND
     1     1     2    1
     2     2     3   ar
     3     3     4   ar
     4     4     5   ar
     5     5     8    1
     6     8     9   am
     7     9    10    2
     8     9    12    1
     9    12    13   ar
    10    13    14   ar
    11    14    15    1
    12    14    16   ar
    13    16    17   ar
    14    17    19    1
    15    19    20    1
    16    20    21    1
    17    21    22    1
    18    22    23    1
    19    23    24    1
    20    17    18   ar
    21     5     6   ar
    22     6     7   ar
    23     7    25    1
    24    25    27    1
    25    27    28   ar
    26    28    29   ar
    27    29    30   ar
    28    30    31   ar
    29    31    32   ar
    30    32    33   ar
    31    33    37    1
    32    37    38    2
    33    37    39    1
    34    39    40   ar
    35    40    41   ar
    36    41    42   ar
    37    42    43   ar
    38    43    44   ar
    39    33    34   ar
    40    34    35    1
    41    34    36   ar
    42     7     2   ar
    43    36    27   ar
    44    18    12   ar
    45    36    31   ar
    46    24    19    1
    47    44    39   ar
    48     8    11    1
    49    25    26    1
