@<TRIPOS>MOLECULE
*****
 30 34 0 0 0
SMALL
GASTEIGER

@<TRIPOS>ATOM
      1 C          59.3233   87.0689    7.5682 C.3     1  UNL1        0.0950
      2 C          60.2345   87.1336    8.7580 C.ar    1  UNL1        0.2063
      3 N          60.6305   85.9785    9.6292 N.ar    1  UNL1       -0.2072
      4 C          61.5504   86.4958   10.6952 C.ar    1  UNL1        0.1744
      5 C          62.2532   85.8145   11.8317 C.ar    1  UNL1        0.2816
      6 O          62.0806   84.3396   12.0441 O.2     1  UNL1       -0.2652
      7 N          63.1286   86.6079   12.7559 N.ar    1  UNL1       -0.2951
      8 C          63.3012   88.0828   12.5435 C.ar    1  UNL1        0.0773
      9 C          64.1765   88.8762   13.4677 C.ar    1  UNL1        0.0890
     10 CL         64.8793   88.1949   14.6042 Cl      1  UNL1       -0.0794
     11 C          64.3491   90.3510   13.2553 C.ar    1  UNL1        0.0878
     12 C          63.6463   91.0324   12.1187 C.ar    1  UNL1        0.1543
     13 F          63.8189   92.5072   11.9063 F       1  UNL1       -0.2028
     14 C          62.7709   90.2389   11.1945 C.ar    1  UNL1        0.0355
     15 C          62.5983   88.7641   11.4069 C.ar    1  UNL1        0.0553
     16 C          61.7230   87.9706   10.4827 C.ar    1  UNL1        0.1705
     17 O          60.9097   88.3648    9.2855 O.2     1  UNL1       -0.4382
     18 N          65.2245   91.1445   14.1794 N.pl3   1  UNL1       -0.3050
     19 C          64.8472   91.6366   15.5453 C.3     1  UNL1        0.0910
     20 C          66.0205   92.3815   16.1100 C.3     1  UNL1        0.0244
     21 C          67.1228   92.3497   15.0931 C.3     1  UNL1        0.0357
     22 C          66.6308   91.5853   13.9000 C.3     1  UNL1        0.0922
     23 C          68.4788   92.9730   15.2431 C.3     1  UNL1        0.0525
     24 C          68.6698   94.1407   16.1650 C.3     1  UNL1        0.0169
     25 N          69.6440   92.4285   14.4711 N.3     1  UNL1       -0.3221
     26 H          70.4807   92.9681   14.6929 H       1  UNL1        0.1188
     27 H          69.4510   92.4958   13.4718 H       1  UNL1        0.1188
     28 C          63.8314   85.9266   13.8925 C.3     1  UNL1        0.0886
     29 C          63.9041   85.5687   15.3473 C.3     1  UNL1        0.0246
     30 C          64.9759   85.1044   14.4063 C.3     1  UNL1        0.0246
@<TRIPOS>BOND
     1     1     2    1
     2     2     3   ar
     3     3     4   ar
     4     4     5   ar
     5     5     6    2
     6     5     7   ar
     7     7    28    1
     8    28    29    1
     9    29    30    1
    10     7     8   ar
    11     8     9   ar
    12     9    10    1
    13     9    11   ar
    14    11    18    1
    15    18    19    1
    16    19    20    1
    17    21    20    1
    18    21    23    1
    19    23    24    1
    20    23    25    1
    21    21    22    1
    22    11    12   ar
    23    12    13    1
    24    12    14   ar
    25    14    15   ar
    26    15    16   ar
    27    16    17   ar
    28    17     2   ar
    29    16     4   ar
    30    30    28    1
    31    15     8   ar
    32    22    18    1
    33    25    26    1
    34    25    27    1
@<TRIPOS>MOLECULE
*****
 30 34 0 0 0
SMALL
GASTEIGER

@<TRIPOS>ATOM
      1 C          66.1893   93.1162   15.0202 C.3     1  UNL1        0.0950
      2 C          65.4502   91.9971   14.3484 C.ar    1  UNL1        0.2063
      3 N          64.6215   92.1101   13.1033 N.ar    1  UNL1       -0.2072
      4 C          64.0691   90.7513   12.7891 C.ar    1  UNL1        0.1744
      5 C          63.1854   90.2586   11.6818 C.ar    1  UNL1        0.2816
      6 O          62.6980   91.2114   10.6307 O.2     1  UNL1       -0.2652
      7 N          62.7889   88.8130   11.6254 N.ar    1  UNL1       -0.2951
      8 C          63.2763   87.8602   12.6765 C.ar    1  UNL1        0.0773
      9 C          62.8799   86.4146   12.6202 C.ar    1  UNL1        0.0890
     10 CL         61.9962   85.9219   11.5129 Cl      1  UNL1       -0.0794
     11 C          63.3672   85.4618   13.6712 C.ar    1  UNL1        0.0878
     12 C          64.2510   85.9545   14.7785 C.ar    1  UNL1        0.1543
     13 F          64.7383   85.0017   15.8295 F       1  UNL1       -0.2028
     14 C          64.6474   87.4002   14.8348 C.ar    1  UNL1        0.0355
     15 C          64.1601   88.3530   13.7838 C.ar    1  UNL1        0.0553
     16 C          64.5565   89.7985   13.8401 C.ar    1  UNL1        0.1705
     17 O          65.4100   90.5684   14.8038 O.2     1  UNL1       -0.4382
     18 N          62.9708   84.0163   13.6149 N.pl3   1  UNL1       -0.3050
     19 C          62.2263   83.2641   14.6779 C.3     1  UNL1        0.0910
     20 C          62.0447   81.8520   14.2057 C.3     1  UNL1        0.0244
     21 C          62.6770   81.7314   12.8508 C.3     1  UNL1        0.0357
     22 C          63.2494   83.0689   12.4857 C.3     1  UNL1        0.0922
     23 C          62.7280   80.4910   12.0090 C.3     1  UNL1        0.0525
     24 C          63.0609   80.5883   10.5496 C.3     1  UNL1        0.0169
     25 N          62.4461   79.1534   12.6264 N.3     1  UNL1       -0.3221
     26 H          62.5243   78.4271   11.9145 H       1  UNL1        0.1188
     27 H          61.5025   79.1497   13.0136 H       1  UNL1        0.1188
     28 C          61.9052   88.3202   10.5181 C.3     1  UNL1        0.0886
     29 C          60.5534   88.2400    9.8731 C.3     1  UNL1        0.0246
     30 C          61.7263   87.5471    9.2453 C.3     1  UNL1        0.0246
@<TRIPOS>BOND
     1     1     2    1
     2     2     3   ar
     3     3     4   ar
     4     4     5   ar
     5     5     6    2
     6     5     7   ar
     7     7    28    1
     8    28    29    1
     9    29    30    1
    10     7     8   ar
    11     8     9   ar
    12     9    10    1
    13     9    11   ar
    14    11    18    1
    15    18    19    1
    16    19    20    1
    17    21    20    1
    18    21    23    1
    19    23    24    1
    20    23    25    1
    21    21    22    1
    22    11    12   ar
    23    12    13    1
    24    12    14   ar
    25    14    15   ar
    26    15    16   ar
    27    16    17   ar
    28    17     2   ar
    29    16     4   ar
    30    30    28    1
    31    15     8   ar
    32    22    18    1
    33    25    26    1
    34    25    27    1
@<TRIPOS>MOLECULE
*****
 30 34 0 0 0
SMALL
GASTEIGER

@<TRIPOS>ATOM
      1 C          62.7741   80.6666   11.9721 C.3     1  UNL1        0.0950
      2 C          62.7620   82.1641   11.8850 C.ar    1  UNL1        0.2063
      3 N          62.1900   82.9774   10.7620 N.ar    1  UNL1       -0.2072
      4 C          62.3943   84.4271   11.0886 C.ar    1  UNL1        0.1744
      5 C          62.0347   85.6825   10.3508 C.ar    1  UNL1        0.2816
      6 O          61.3365   85.5999    9.0258 O.2     1  UNL1       -0.2652
      7 N          62.3734   87.0207   10.9379 N.ar    1  UNL1       -0.2951
      8 C          63.0717   87.1034   12.2629 C.ar    1  UNL1        0.0773
      9 C          63.4103   88.4414   12.8501 C.ar    1  UNL1        0.0890
     10 CL         63.0507   89.6969   12.1122 Cl      1  UNL1       -0.0794
     11 C          64.1086   88.5241   14.1750 C.ar    1  UNL1        0.0878
     12 C          64.4682   87.2686   14.9129 C.ar    1  UNL1        0.1543
     13 F          65.1664   87.3512   16.2379 F       1  UNL1       -0.2028
     14 C          64.1295   85.9304   14.3258 C.ar    1  UNL1        0.0355
     15 C          63.4312   85.8478   13.0008 C.ar    1  UNL1        0.0553
     16 C          63.0926   84.5097   12.4136 C.ar    1  UNL1        0.1705
     17 O          63.3198   83.1111   12.9058 O.2     1  UNL1       -0.4382
     18 N          64.4473   89.8621   14.7622 N.pl3   1  UNL1       -0.3050
     19 C          63.6884   90.5663   15.8477 C.3     1  UNL1        0.0910
     20 C          64.3764   91.8705   16.1233 C.3     1  UNL1        0.0244
     21 C          65.5606   91.9723   15.2081 C.3     1  UNL1        0.0357
     22 C          65.6044   90.7311   14.3670 C.3     1  UNL1        0.0922
     23 C          66.5306   93.1146   15.1452 C.3     1  UNL1        0.0525
     24 C          67.7227   93.1372   16.0553 C.3     1  UNL1        0.0169
     25 N          66.3085   94.2344   14.1722 N.3     1  UNL1       -0.3221
     26 H          67.0585   94.9194   14.2653 H       1  UNL1        0.1188
     27 H          65.4130   94.6820   14.3676 H       1  UNL1        0.1188
     28 C          62.0138   88.2762   10.2001 C.3     1  UNL1        0.0886
     29 C          62.4215   89.5762    9.5726 C.3     1  UNL1        0.0246
     30 C          60.9833   89.1507    9.5495 C.3     1  UNL1        0.0246
@<TRIPOS>BOND
     1     1     2    1
     2     2     3   ar
     3     3     4   ar
     4     4     5   ar
     5     5     6    2
     6     5     7   ar
     7     7    28    1
     8    28    29    1
     9    29    30    1
    10     7     8   ar
    11     8     9   ar
    12     9    10    1
    13     9    11   ar
    14    11    18    1
    15    18    19    1
    16    19    20    1
    17    21    20    1
    18    21    23    1
    19    23    24    1
    20    23    25    1
    21    21    22    1
    22    11    12   ar
    23    12    13    1
    24    12    14   ar
    25    14    15   ar
    26    15    16   ar
    27    16    17   ar
    28    17     2   ar
    29    16     4   ar
    30    30    28    1
    31    15     8   ar
    32    22    18    1
    33    25    26    1
    34    25    27    1
