@<TRIPOS>MOLECULE
*****
 31 34 0 0 0
SMALL
GASTEIGER

@<TRIPOS>ATOM
      1 N          62.2540   86.7884   11.5248 N.am    1  UNL1       -0.2683
      2 C          63.0292   87.7789   12.3422 C.2     1  UNL1        0.3047
      3 O          64.2731   87.3478   13.0612 O.2     1  UNL1       -0.2525
      4 N          62.5606   89.2004   12.4405 N.am    1  UNL1       -0.2863
      5 H          61.4376   87.0713   11.0529 H       1  UNL1        0.1564
      6 H          61.7442   89.4833   11.9686 H       1  UNL1        0.1512
      7 C          63.3358   90.1907   13.2579 C.3     1  UNL1        0.1020
      8 C          63.2816   90.1329   14.7558 C.3     1  UNL1        0.0642
      9 C          64.0568   91.1234   15.5732 C.3     1  UNL1        0.1353
     10 C          64.6108   91.8356   16.7714 C.3     1  UNL1        0.0437
     11 C          63.4198   90.3225   16.6699 C.3     1  UNL1        0.0437
     12 O          64.8863   92.1716   14.8926 O.3     1  UNL1       -0.4804
     13 C          64.9405   92.2294   13.3947 C.ar    1  UNL1        0.1652
     14 C          64.1653   91.2390   12.5774 C.ar    1  UNL1        0.0320
     15 C          64.2195   91.2969   11.0794 C.ar    1  UNL1        0.0028
     16 C          65.0490   92.3451   10.3989 C.ar    1  UNL1        0.0319
     17 C          65.8242   93.3355   11.2162 C.ar    1  UNL1        0.1704
     18 F          66.6537   94.3838   10.5357 F       1  UNL1       -0.2017
     19 C          65.7699   93.2777   12.7141 C.ar    1  UNL1        0.2007
     20 F          66.5452   94.2681   13.5315 F       1  UNL1       -0.1986
     21 C          62.3664   84.8924   16.5887 C.3     1  UNL1        0.0521
     22 C          62.6898   84.3003   15.2490 C.ar    1  UNL1        0.0594
     23 C          62.5445   85.1296   14.0076 C.ar    1  UNL1        0.0160
     24 C          62.8679   84.5375   12.6679 C.ar    1  UNL1        0.0162
     25 C          62.7226   85.3669   11.4265 C.ar    1  UNL1        0.0516
     26 C          63.0460   84.7748   10.0868 C.ar    1  UNL1        0.0147
     27 C          63.5146   83.3532    9.9885 C.ar    1  UNL1        0.0013
     28 C          63.6599   82.5239   11.2298 C.ar    1  UNL1        0.0016
     29 C          63.3365   83.1160   12.5696 C.ar    1  UNL1        0.0204
     30 C          63.4818   82.2866   13.8109 C.ar    1  UNL1        0.0984
     31 N          63.1584   82.8788   15.1506 N.ar    1  UNL1       -0.2481
@<TRIPOS>BOND
     1    21    22    1
     2    22    23   ar
     3    23    24   ar
     4    24    25   ar
     5    25     1    1
     6     1     2   am
     7     2     3    2
     8     2     4   am
     9     7     4    1
    10     7     8    1
    11     8     9    1
    12     9    10    1
    13     9    11    1
    14     9    12    1
    15    12    13    1
    16    13    14   ar
    17    14    15   ar
    18    15    16   ar
    19    16    17   ar
    20    17    18    1
    21    17    19   ar
    22    19    20    1
    23    25    26   ar
    24    26    27   ar
    25    27    28   ar
    26    28    29   ar
    27    29    30   ar
    28    30    31   ar
    29    31    22   ar
    30    29    24   ar
    31    14     7    1
    32    19    13   ar
    33     1     5    1
    34     4     6    1
@<TRIPOS>MOLECULE
*****
 31 34 0 0 0
SMALL
GASTEIGER

@<TRIPOS>ATOM
      1 N          63.0667   91.2210   13.6700 N.am    1  UNL1       -0.2683
      2 C          63.0353   89.8658   13.0277 C.2     1  UNL1        0.3047
      3 O          64.1441   88.8885   13.2839 O.2     1  UNL1       -0.2525
      4 N          61.8953   89.4879   12.1291 N.am    1  UNL1       -0.2863
      5 H          62.3391   91.8624   13.5018 H       1  UNL1        0.1564
      6 H          61.1676   90.1294   11.9610 H       1  UNL1        0.1512
      7 C          61.8639   88.1328   11.4869 C.3     1  UNL1        0.1020
      8 C          62.5463   86.9728   12.1494 C.3     1  UNL1        0.0642
      9 C          62.5149   85.6176   11.5070 C.3     1  UNL1        0.1353
     10 C          62.7611   84.1537   11.2920 C.3     1  UNL1        0.0437
     11 C          63.3141   85.3044   12.7372 C.3     1  UNL1        0.0437
     12 O          61.8012   85.4225   10.2022 O.3     1  UNL1       -0.4804
     13 C          61.1189   86.5824    9.5397 C.ar    1  UNL1        0.1652
     14 C          61.1502   87.9376   10.1820 C.ar    1  UNL1        0.0320
     15 C          60.4679   89.0975    9.5195 C.ar    1  UNL1        0.0028
     16 C          59.7542   88.9024    8.2147 C.ar    1  UNL1        0.0319
     17 C          59.7229   87.5472    7.5724 C.ar    1  UNL1        0.1704
     18 F          59.0092   87.3520    6.2676 F       1  UNL1       -0.2017
     19 C          60.4052   86.3873    8.2349 C.ar    1  UNL1        0.2007
     20 F          60.3738   85.0321    7.5926 F       1  UNL1       -0.1986
     21 C          67.2579   92.2678   10.4160 C.3     1  UNL1        0.0521
     22 C          67.0652   92.2895   11.9034 C.ar    1  UNL1        0.0594
     23 C          65.7324   91.9334   12.4923 C.ar    1  UNL1        0.0160
     24 C          65.5397   91.9550   13.9797 C.ar    1  UNL1        0.0162
     25 C          64.2068   91.5989   14.5686 C.ar    1  UNL1        0.0516
     26 C          64.0141   91.6206   16.0560 C.ar    1  UNL1        0.0147
     27 C          65.1543   91.9984   16.9545 C.ar    1  UNL1        0.0013
     28 C          66.4870   92.3546   16.3657 C.ar    1  UNL1        0.0016
     29 C          66.6797   92.3329   14.8783 C.ar    1  UNL1        0.0204
     30 C          68.0125   92.6891   14.2894 C.ar    1  UNL1        0.0984
     31 N          68.2052   92.6674   12.8020 N.ar    1  UNL1       -0.2481
@<TRIPOS>BOND
     1    21    22    1
     2    22    23   ar
     3    23    24   ar
     4    24    25   ar
     5    25     1    1
     6     1     2   am
     7     2     3    2
     8     2     4   am
     9     7     4    1
    10     7     8    1
    11     8     9    1
    12     9    10    1
    13     9    11    1
    14     9    12    1
    15    12    13    1
    16    13    14   ar
    17    14    15   ar
    18    15    16   ar
    19    16    17   ar
    20    17    18    1
    21    17    19   ar
    22    19    20    1
    23    25    26   ar
    24    26    27   ar
    25    27    28   ar
    26    28    29   ar
    27    29    30   ar
    28    30    31   ar
    29    31    22   ar
    30    29    24   ar
    31    14     7    1
    32    19    13   ar
    33     1     5    1
    34     4     6    1
@<TRIPOS>MOLECULE
*****
 31 34 0 0 0
SMALL
GASTEIGER

@<TRIPOS>ATOM
      1 N          62.4061   85.9034    8.8804 N.am    1  UNL1       -0.2683
      2 C          62.3490   85.0986   10.1450 C.2     1  UNL1        0.3047
      3 O          61.2818   85.3750   11.1623 O.2     1  UNL1       -0.2525
      4 N          63.3590   84.0176   10.3923 N.am    1  UNL1       -0.2863
      5 H          63.1066   85.7220    8.2128 H       1  UNL1        0.1564
      6 H          64.0594   83.8362    9.7247 H       1  UNL1        0.1512
      7 C          63.3018   83.2129   11.6569 C.3     1  UNL1        0.1020
      8 C          63.0311   81.7387   11.5962 C.3     1  UNL1        0.0642
      9 C          62.9740   80.9340   12.8609 C.3     1  UNL1        0.1353
     10 C          62.8246   79.7546   13.7754 C.3     1  UNL1        0.0437
     11 C          62.7087   79.8550   11.8532 C.3     1  UNL1        0.0437
     12 O          63.1874   81.6035   14.1861 O.3     1  UNL1       -0.4804
     13 C          63.4580   83.0776   14.2467 C.ar    1  UNL1        0.1652
     14 C          63.5152   83.8823   12.9822 C.ar    1  UNL1        0.0320
     15 C          63.7858   85.3565   13.0429 C.ar    1  UNL1        0.0028
     16 C          63.9992   86.0259   14.3681 C.ar    1  UNL1        0.0319
     17 C          63.9420   85.2212   15.6326 C.ar    1  UNL1        0.1704
     18 F          64.1554   85.8906   16.9580 F       1  UNL1       -0.2017
     19 C          63.6714   83.7471   15.5720 C.ar    1  UNL1        0.2007
     20 F          63.6142   82.9424   16.8366 F       1  UNL1       -0.1986
     21 C          63.3776   89.7363   12.5703 C.3     1  UNL1        0.0521
     22 C          62.3772   89.5889   11.4624 C.ar    1  UNL1        0.0594
     23 C          62.3869   88.3604   10.6017 C.ar    1  UNL1        0.0160
     24 C          61.3865   88.2130    9.4938 C.ar    1  UNL1        0.0162
     25 C          61.3962   86.9845    8.6331 C.ar    1  UNL1        0.0516
     26 C          60.3958   86.8371    7.5251 C.ar    1  UNL1        0.0147
     27 C          59.3858   87.9182    7.2778 C.ar    1  UNL1        0.0013
     28 C          59.3762   89.1467    8.1385 C.ar    1  UNL1        0.0016
     29 C          60.3765   89.2941    9.2464 C.ar    1  UNL1        0.0204
     30 C          60.3669   90.5225   10.1071 C.ar    1  UNL1        0.0984
     31 N          61.3673   90.6699   11.2150 N.ar    1  UNL1       -0.2481
@<TRIPOS>BOND
     1    21    22    1
     2    22    23   ar
     3    23    24   ar
     4    24    25   ar
     5    25     1    1
     6     1     2   am
     7     2     3    2
     8     2     4   am
     9     7     4    1
    10     7     8    1
    11     8     9    1
    12     9    10    1
    13     9    11    1
    14     9    12    1
    15    12    13    1
    16    13    14   ar
    17    14    15   ar
    18    15    16   ar
    19    16    17   ar
    20    17    18    1
    21    17    19   ar
    22    19    20    1
    23    25    26   ar
    24    26    27   ar
    25    27    28   ar
    26    28    29   ar
    27    29    30   ar
    28    30    31   ar
    29    31    22   ar
    30    29    24   ar
    31    14     7    1
    32    19    13   ar
    33     1     5    1
    34     4     6    1
@<TRIPOS>MOLECULE
*****
 31 34 0 0 0
SMALL
GASTEIGER

@<TRIPOS>ATOM
      1 N          61.3758   90.0797   11.1369 N.am    1  UNL1       -0.2683
      2 C          62.7705   90.6309   11.1049 C.2     1  UNL1        0.3047
      3 O          63.7582   90.1142   10.1012 O.2     1  UNL1       -0.2525
      4 N          63.1775   91.6986   12.0766 N.am    1  UNL1       -0.2863
      5 H          60.7275   90.4188   11.7957 H       1  UNL1        0.1564
      6 H          62.5292   92.0377   12.7354 H       1  UNL1        0.1512
      7 C          64.5722   92.2497   12.0446 C.3     1  UNL1        0.1020
      8 C          65.1065   92.8656   10.7855 C.3     1  UNL1        0.0642
      9 C          66.5013   93.4167   10.7535 C.3     1  UNL1        0.1353
     10 C          67.7475   94.0690   10.2325 C.3     1  UNL1        0.0437
     11 C          66.0737   93.7080    9.3455 C.3     1  UNL1        0.0437
     12 O          67.3617   93.3519   11.9805 O.3     1  UNL1       -0.4804
     13 C          66.8273   92.7360   13.2396 C.ar    1  UNL1        0.1652
     14 C          65.4326   92.1849   13.2716 C.ar    1  UNL1        0.0320
     15 C          64.8983   91.5691   14.5306 C.ar    1  UNL1        0.0028
     16 C          65.7587   91.5043   15.7576 C.ar    1  UNL1        0.0319
     17 C          67.1533   92.0554   15.7256 C.ar    1  UNL1        0.1704
     18 F          68.0138   91.9906   16.9526 F       1  UNL1       -0.2017
     19 C          67.6877   92.6712   14.4665 C.ar    1  UNL1        0.2007
     20 F          69.0825   93.2224   14.4345 F       1  UNL1       -0.1986
     21 C          63.5197   85.4720   12.9868 C.3     1  UNL1        0.0521
     22 C          62.6785   85.8231   11.7955 C.ar    1  UNL1        0.0594
     23 C          62.2443   87.2419   11.5760 C.ar    1  UNL1        0.0160
     24 C          61.4030   87.5930   10.3847 C.ar    1  UNL1        0.0162
     25 C          60.9688   89.0120   10.1652 C.ar    1  UNL1        0.0516
     26 C          60.1275   89.3631    8.9740 C.ar    1  UNL1        0.0147
     27 C          59.7206   88.2953    8.0023 C.ar    1  UNL1        0.0013
     28 C          60.1548   86.8764    8.2218 C.ar    1  UNL1        0.0016
     29 C          60.9960   86.5253    9.4130 C.ar    1  UNL1        0.0204
     30 C          61.4303   85.1065    9.6326 C.ar    1  UNL1        0.0984
     31 N          62.2715   84.7553   10.8238 N.ar    1  UNL1       -0.2481
@<TRIPOS>BOND
     1    21    22    1
     2    22    23   ar
     3    23    24   ar
     4    24    25   ar
     5    25     1    1
     6     1     2   am
     7     2     3    2
     8     2     4   am
     9     7     4    1
    10     7     8    1
    11     8     9    1
    12     9    10    1
    13     9    11    1
    14     9    12    1
    15    12    13    1
    16    13    14   ar
    17    14    15   ar
    18    15    16   ar
    19    16    17   ar
    20    17    18    1
    21    17    19   ar
    22    19    20    1
    23    25    26   ar
    24    26    27   ar
    25    27    28   ar
    26    28    29   ar
    27    29    30   ar
    28    30    31   ar
    29    31    22   ar
    30    29    24   ar
    31    14     7    1
    32    19    13   ar
    33     1     5    1
    34     4     6    1
@<TRIPOS>MOLECULE
*****
 31 34 0 0 0
SMALL
GASTEIGER

@<TRIPOS>ATOM
      1 N          63.0739   90.1906   13.8172 N.am    1  UNL1       -0.2683
      2 C          63.4508   88.7600   13.5696 C.2     1  UNL1        0.3047
      3 O          64.7111   88.2031   14.1627 O.2     1  UNL1       -0.2525
      4 N          62.5676   87.8863   12.7291 N.am    1  UNL1       -0.2863
      5 H          62.2468   90.5562   13.4280 H       1  UNL1        0.1564
      6 H          61.7405   88.2518   12.3399 H       1  UNL1        0.1512
      7 C          62.9446   86.4557   12.4816 C.3     1  UNL1        0.1020
      8 C          63.3678   85.5829   13.6258 C.3     1  UNL1        0.0642
      9 C          63.7447   84.1523   13.3782 C.3     1  UNL1        0.1353
     10 C          64.1917   82.7458   13.6464 C.3     1  UNL1        0.0437
     11 C          63.9462   84.2216   14.8631 C.3     1  UNL1        0.0437
     12 O          63.6985   83.5945   11.9866 O.3     1  UNL1       -0.4804
     13 C          63.2753   84.4673   10.8424 C.ar    1  UNL1        0.1652
     14 C          62.8983   85.8979   11.0899 C.ar    1  UNL1        0.0320
     15 C          62.4751   86.7707    9.9458 C.ar    1  UNL1        0.0028
     16 C          62.4289   86.2130    8.5541 C.ar    1  UNL1        0.0319
     17 C          62.8059   84.7824    8.3066 C.ar    1  UNL1        0.1704
     18 F          62.7596   84.2246    6.9149 F       1  UNL1       -0.2017
     19 C          63.2291   83.9096    9.4508 C.ar    1  UNL1        0.2007
     20 F          63.6061   82.4789    9.2032 F       1  UNL1       -0.1986
     21 C          66.4075   92.7035   10.3789 C.3     1  UNL1        0.0521
     22 C          66.2366   92.7305   11.8688 C.ar    1  UNL1        0.0594
     23 C          65.1824   91.8839   12.5183 C.ar    1  UNL1        0.0160
     24 C          65.0114   91.9110   14.0083 C.ar    1  UNL1        0.0162
     25 C          63.9571   91.0643   14.6577 C.ar    1  UNL1        0.0516
     26 C          63.7862   91.0913   16.1477 C.ar    1  UNL1        0.0147
     27 C          64.6695   91.9651   16.9882 C.ar    1  UNL1        0.0013
     28 C          65.7237   92.8117   16.3388 C.ar    1  UNL1        0.0016
     29 C          65.8947   92.7846   14.8488 C.ar    1  UNL1        0.0204
     30 C          66.9489   93.6313   14.1993 C.ar    1  UNL1        0.0984
     31 N          67.1198   93.6042   12.7094 N.ar    1  UNL1       -0.2481
@<TRIPOS>BOND
     1    21    22    1
     2    22    23   ar
     3    23    24   ar
     4    24    25   ar
     5    25     1    1
     6     1     2   am
     7     2     3    2
     8     2     4   am
     9     7     4    1
    10     7     8    1
    11     8     9    1
    12     9    10    1
    13     9    11    1
    14     9    12    1
    15    12    13    1
    16    13    14   ar
    17    14    15   ar
    18    15    16   ar
    19    16    17   ar
    20    17    18    1
    21    17    19   ar
    22    19    20    1
    23    25    26   ar
    24    26    27   ar
    25    27    28   ar
    26    28    29   ar
    27    29    30   ar
    28    30    31   ar
    29    31    22   ar
    30    29    24   ar
    31    14     7    1
    32    19    13   ar
    33     1     5    1
    34     4     6    1
@<TRIPOS>MOLECULE
*****
 31 34 0 0 0
SMALL
GASTEIGER

@<TRIPOS>ATOM
      1 N          62.5632   90.1028   13.4941 N.am    1  UNL1       -0.2683
      2 C          62.9508   88.8076   12.8442 C.2     1  UNL1        0.3047
      3 O          64.3119   88.2253   13.0853 O.2     1  UNL1       -0.2525
      4 N          61.9772   88.0948   11.9531 N.am    1  UNL1       -0.2863
      5 H          61.6699   90.4850   13.3359 H       1  UNL1        0.1564
      6 H          61.0838   88.4770   11.7948 H       1  UNL1        0.1512
      7 C          62.3648   86.7997   11.3032 C.3     1  UNL1        0.1020
      8 C          62.3329   86.6713    9.8091 C.3     1  UNL1        0.0642
      9 C          62.7205   85.3761    9.1592 C.3     1  UNL1        0.1353
     10 C          62.9956   84.3641    8.0867 C.3     1  UNL1        0.0437
     11 C          62.3966   86.1914    7.9424 C.3     1  UNL1        0.0437
     12 O          63.1400   84.2094   10.0034 O.3     1  UNL1       -0.4804
     13 C          63.1718   84.3378   11.4976 C.ar    1  UNL1        0.1652
     14 C          62.7843   85.6329   12.1475 C.ar    1  UNL1        0.0320
     15 C          62.8161   85.7613   13.6416 C.ar    1  UNL1        0.0028
     16 C          63.2356   84.5946   14.4859 C.ar    1  UNL1        0.0319
     17 C          63.6231   83.2995   13.8360 C.ar    1  UNL1        0.1704
     18 F          64.0426   82.1327   14.6803 F       1  UNL1       -0.2017
     19 C          63.5913   83.1711   12.3418 C.ar    1  UNL1        0.2007
     20 F          63.9789   81.8759   11.6919 F       1  UNL1       -0.1986
     21 C          65.9517   92.7409   10.2065 C.3     1  UNL1        0.0521
     22 C          65.8348   92.6159   11.6967 C.ar    1  UNL1        0.0594
     23 C          64.7443   91.7782   12.2958 C.ar    1  UNL1        0.0160
     24 C          64.6274   91.6533   13.7860 C.ar    1  UNL1        0.0162
     25 C          63.5368   90.8156   14.3852 C.ar    1  UNL1        0.0516
     26 C          63.4199   90.6907   15.8754 C.ar    1  UNL1        0.0147
     27 C          64.3936   91.4035   16.7665 C.ar    1  UNL1        0.0013
     28 C          65.4841   92.2412   16.1673 C.ar    1  UNL1        0.0016
     29 C          65.6010   92.3661   14.6771 C.ar    1  UNL1        0.0204
     30 C          66.6915   93.2038   14.0780 C.ar    1  UNL1        0.0984
     31 N          66.8084   93.3287   12.5877 N.ar    1  UNL1       -0.2481
@<TRIPOS>BOND
     1    21    22    1
     2    22    23   ar
     3    23    24   ar
     4    24    25   ar
     5    25     1    1
     6     1     2   am
     7     2     3    2
     8     2     4   am
     9     7     4    1
    10     7     8    1
    11     8     9    1
    12     9    10    1
    13     9    11    1
    14     9    12    1
    15    12    13    1
    16    13    14   ar
    17    14    15   ar
    18    15    16   ar
    19    16    17   ar
    20    17    18    1
    21    17    19   ar
    22    19    20    1
    23    25    26   ar
    24    26    27   ar
    25    27    28   ar
    26    28    29   ar
    27    29    30   ar
    28    30    31   ar
    29    31    22   ar
    30    29    24   ar
    31    14     7    1
    32    19    13   ar
    33     1     5    1
    34     4     6    1
@<TRIPOS>MOLECULE
*****
 31 34 0 0 0
SMALL
GASTEIGER

@<TRIPOS>ATOM
      1 N          63.4066   83.5169   10.3493 N.am    1  UNL1       -0.2683
      2 C          62.5458   84.7435   10.2815 C.2     1  UNL1        0.3047
      3 O          61.5692   85.0360   11.3819 O.2     1  UNL1       -0.2525
      4 N          62.6616   85.6775    9.1136 N.am    1  UNL1       -0.2863
      5 H          64.0476   83.3249    9.6271 H       1  UNL1        0.1564
      6 H          63.3026   85.4855    8.3914 H       1  UNL1        0.1512
      7 C          61.8008   86.9040    9.0459 C.3     1  UNL1        0.1020
      8 C          60.7663   87.0357    7.9678 C.3     1  UNL1        0.0642
      9 C          59.9054   88.2623    7.9001 C.3     1  UNL1        0.1353
     10 C          58.8579   89.2246    7.4241 C.3     1  UNL1        0.0437
     11 C          59.3679   87.5016    6.7243 C.3     1  UNL1        0.0437
     12 O          60.0792   89.3571    8.9106 O.3     1  UNL1       -0.4804
     13 C          61.1137   89.2254    9.9888 C.ar    1  UNL1        0.1652
     14 C          61.9745   87.9989   10.0564 C.ar    1  UNL1        0.0320
     15 C          63.0090   87.8672   11.1346 C.ar    1  UNL1        0.0028
     16 C          63.1828   88.9620   12.1450 C.ar    1  UNL1        0.0319
     17 C          62.3220   90.1885   12.0774 C.ar    1  UNL1        0.1704
     18 F          62.4957   91.2835   13.0879 F       1  UNL1       -0.2017
     19 C          61.2874   90.3202   10.9992 C.ar    1  UNL1        0.2007
     20 F          60.4266   91.5468   10.9316 F       1  UNL1       -0.1986
     21 C          64.5964   86.4470   14.7366 C.3     1  UNL1        0.0521
     22 C          64.2121   85.0140   14.5158 C.ar    1  UNL1        0.0594
     23 C          63.9436   84.5150   13.1270 C.ar    1  UNL1        0.0160
     24 C          63.5594   83.0819   12.9061 C.ar    1  UNL1        0.0162
     25 C          63.2909   82.5829   11.5172 C.ar    1  UNL1        0.0516
     26 C          62.9066   81.1499   11.2964 C.ar    1  UNL1        0.0147
     27 C          62.7908   80.2159   12.4645 C.ar    1  UNL1        0.0013
     28 C          63.0593   80.7149   13.8533 C.ar    1  UNL1        0.0016
     29 C          63.4436   82.1480   14.0741 C.ar    1  UNL1        0.0204
     30 C          63.7121   82.6470   15.4629 C.ar    1  UNL1        0.0984
     31 N          64.0964   84.0800   15.6837 N.ar    1  UNL1       -0.2481
@<TRIPOS>BOND
     1    21    22    1
     2    22    23   ar
     3    23    24   ar
     4    24    25   ar
     5    25     1    1
     6     1     2   am
     7     2     3    2
     8     2     4   am
     9     7     4    1
    10     7     8    1
    11     8     9    1
    12     9    10    1
    13     9    11    1
    14     9    12    1
    15    12    13    1
    16    13    14   ar
    17    14    15   ar
    18    15    16   ar
    19    16    17   ar
    20    17    18    1
    21    17    19   ar
    22    19    20    1
    23    25    26   ar
    24    26    27   ar
    25    27    28   ar
    26    28    29   ar
    27    29    30   ar
    28    30    31   ar
    29    31    22   ar
    30    29    24   ar
    31    14     7    1
    32    19    13   ar
    33     1     5    1
    34     4     6    1
@<TRIPOS>MOLECULE
*****
 31 34 0 0 0
SMALL
GASTEIGER

@<TRIPOS>ATOM
      1 N          62.7201   86.9560   12.4145 N.am    1  UNL1       -0.2683
      2 C          63.4585   88.0465   13.1326 C.2     1  UNL1        0.3047
      3 O          64.5534   87.7011   14.0979 O.2     1  UNL1       -0.2525
      4 N          63.1020   89.4824   12.8854 N.am    1  UNL1       -0.2863
      5 H          62.0014   87.1827   11.7809 H       1  UNL1        0.1564
      6 H          62.3833   89.7091   12.2518 H       1  UNL1        0.1512
      7 C          63.8403   90.5728   13.6035 C.3     1  UNL1        0.1020
      8 C          63.7939   90.6498   15.1008 C.3     1  UNL1        0.0642
      9 C          64.5323   91.7403   15.8189 C.3     1  UNL1        0.1353
     10 C          65.0620   92.5801   16.9433 C.3     1  UNL1        0.0437
     11 C          63.9315   91.0186   16.9886 C.3     1  UNL1        0.0437
     12 O          65.3172   92.7537   15.0397 O.3     1  UNL1       -0.4804
     13 C          65.3636   92.6766   13.5424 C.ar    1  UNL1        0.1652
     14 C          64.6252   91.5862   12.8243 C.ar    1  UNL1        0.0320
     15 C          64.6716   91.5091   11.3270 C.ar    1  UNL1        0.0028
     16 C          65.4564   92.5225   10.5478 C.ar    1  UNL1        0.0319
     17 C          66.1948   93.6129   11.2660 C.ar    1  UNL1        0.1704
     18 F          66.9797   94.6263   10.4868 F       1  UNL1       -0.2017
     19 C          66.1484   93.6899   12.7633 C.ar    1  UNL1        0.2007
     20 F          66.8868   94.7804   13.4814 F       1  UNL1       -0.1986
     21 C          63.0482   84.6317    7.5421 C.3     1  UNL1        0.0521
     22 C          63.2336   84.1358    8.9456 C.ar    1  UNL1        0.0594
     23 C          63.0624   85.0759   10.1019 C.ar    1  UNL1        0.0160
     24 C          63.2478   84.5800   11.5054 C.ar    1  UNL1        0.0162
     25 C          63.0766   85.5201   12.6617 C.ar    1  UNL1        0.0516
     26 C          63.2619   85.0243   14.0652 C.ar    1  UNL1        0.0147
     27 C          63.6185   83.5884   14.3124 C.ar    1  UNL1        0.0013
     28 C          63.7896   82.6483   13.1561 C.ar    1  UNL1        0.0016
     29 C          63.6043   83.1442   11.7526 C.ar    1  UNL1        0.0204
     30 C          63.7754   82.2042   10.5963 C.ar    1  UNL1        0.0984
     31 N          63.5901   82.7000    9.1928 N.ar    1  UNL1       -0.2481
@<TRIPOS>BOND
     1    21    22    1
     2    22    23   ar
     3    23    24   ar
     4    24    25   ar
     5    25     1    1
     6     1     2   am
     7     2     3    2
     8     2     4   am
     9     7     4    1
    10     7     8    1
    11     8     9    1
    12     9    10    1
    13     9    11    1
    14     9    12    1
    15    12    13    1
    16    13    14   ar
    17    14    15   ar
    18    15    16   ar
    19    16    17   ar
    20    17    18    1
    21    17    19   ar
    22    19    20    1
    23    25    26   ar
    24    26    27   ar
    25    27    28   ar
    26    28    29   ar
    27    29    30   ar
    28    30    31   ar
    29    31    22   ar
    30    29    24   ar
    31    14     7    1
    32    19    13   ar
    33     1     5    1
    34     4     6    1
@<TRIPOS>MOLECULE
*****
 31 34 0 0 0
SMALL
GASTEIGER

@<TRIPOS>ATOM
      1 N          57.1062   92.8379   -2.2355 N.am    1  UNL1       -0.2683
      2 C          58.3876   93.2874   -1.5981 C.2     1  UNL1        0.3047
      3 O          58.6212   94.7447   -1.3303 O.2     1  UNL1       -0.2525
      4 N          59.4352   92.2795   -1.2285 N.am    1  UNL1       -0.2863
      5 H          56.9529   91.8815   -2.4112 H       1  UNL1        0.1564
      6 H          59.2819   91.3230   -1.4042 H       1  UNL1        0.1512
      7 C          60.7165   92.7290   -0.5911 C.3     1  UNL1        0.1020
      8 C          60.9460   92.5008    0.8735 C.3     1  UNL1        0.0642
      9 C          62.2274   92.9503    1.5109 C.3     1  UNL1        0.1353
     10 C          63.2690   93.1937    2.5624 C.3     1  UNL1        0.0437
     11 C          61.5374   92.3571    2.7034 C.3     1  UNL1        0.0437
     12 O          63.2792   93.6279    0.6836 O.3     1  UNL1       -0.4804
     13 C          63.0496   93.8562   -0.7811 C.ar    1  UNL1        0.1652
     14 C          61.7684   93.4067   -1.4185 C.ar    1  UNL1        0.0320
     15 C          61.5388   93.6349   -2.8831 C.ar    1  UNL1        0.0028
     16 C          62.5906   94.3126   -3.7104 C.ar    1  UNL1        0.0319
     17 C          63.8719   94.7620   -3.0731 C.ar    1  UNL1        0.1704
     18 F          64.9237   95.4398   -3.9004 F       1  UNL1       -0.2017
     19 C          64.1014   94.5338   -1.6084 C.ar    1  UNL1        0.2007
     20 F          65.3828   94.9833   -0.9711 F       1  UNL1       -0.1986
     21 C          57.7762   93.8327   -7.5091 C.3     1  UNL1        0.0521
     22 C          56.8230   94.3399   -6.4679 C.ar    1  UNL1        0.0594
     23 C          56.9174   93.8393   -5.0571 C.ar    1  UNL1        0.0160
     24 C          55.9641   94.3465   -4.0159 C.ar    1  UNL1        0.0162
     25 C          56.0586   93.8458   -2.6051 C.ar    1  UNL1        0.0516
     26 C          55.1053   94.3530   -1.5639 C.ar    1  UNL1        0.0147
     27 C          54.0577   95.3609   -1.9335 C.ar    1  UNL1        0.0013
     28 C          53.9633   95.8615   -3.3443 C.ar    1  UNL1        0.0016
     29 C          54.9165   95.3543   -4.3855 C.ar    1  UNL1        0.0204
     30 C          54.8221   95.8549   -5.7963 C.ar    1  UNL1        0.0984
     31 N          55.7753   95.3477   -6.8375 N.ar    1  UNL1       -0.2481
@<TRIPOS>BOND
     1    21    22    1
     2    22    23   ar
     3    23    24   ar
     4    24    25   ar
     5    25     1    1
     6     1     2   am
     7     2     3    2
     8     2     4   am
     9     7     4    1
    10     7     8    1
    11     8     9    1
    12     9    10    1
    13     9    11    1
    14     9    12    1
    15    12    13    1
    16    13    14   ar
    17    14    15   ar
    18    15    16   ar
    19    16    17   ar
    20    17    18    1
    21    17    19   ar
    22    19    20    1
    23    25    26   ar
    24    26    27   ar
    25    27    28   ar
    26    28    29   ar
    27    29    30   ar
    28    30    31   ar
    29    31    22   ar
    30    29    24   ar
    31    14     7    1
    32    19    13   ar
    33     1     5    1
    34     4     6    1
