@<TRIPOS>MOLECULE
*****
 35 38 0 0 0
SMALL
GASTEIGER

@<TRIPOS>ATOM
      1 C          62.3102   89.8963   10.9525 C.2     1  UNL1        0.2457
      2 O          61.3121   90.7651   11.6588 O.2     1  UNL1       -0.2702
      3 N          63.6014   90.4824   10.4632 N.am    1  UNL1       -0.3005
      4 H          64.2565   89.9122    9.9996 H       1  UNL1        0.1497
      5 C          63.4950   87.8378   12.7852 C.3     1  UNL1        0.0341
      6 C          62.6095   87.4121   11.6517 C.ar    1  UNL1        0.0141
      7 C          62.3165   85.9571   11.4346 C.ar    1  UNL1        0.1277
      8 N          61.4311   85.5313   10.3012 N.ar    1  UNL1       -0.2310
      9 C          60.8386   86.5606    9.3847 C.ar    1  UNL1        0.0828
     10 C          59.9532   86.1349    8.2513 C.ar    1  UNL1        0.0197
     11 C          59.3609   87.1641    7.3350 C.ar    1  UNL1        0.0082
     12 C          59.6539   88.6191    7.5521 C.ar    1  UNL1        0.0347
     13 BR         59.0615   89.6483    6.6356 Br      1  UNL1       -0.0490
     14 C          60.5393   89.0448    8.6855 C.ar    1  UNL1        0.0083
     15 C          61.1317   88.0156    9.6018 C.ar    1  UNL1        0.0223
     16 C          62.0172   88.4413   10.7354 C.ar    1  UNL1        0.0535
     17 N          62.9089   84.9278   12.3510 N.pl3   1  UNL1       -0.2935
     18 C          62.5199   84.6918   13.7804 C.3     1  UNL1        0.0922
     19 C          63.3649   83.5720   14.3117 C.3     1  UNL1        0.0232
     20 C          64.2760   83.1161   13.2107 C.3     1  UNL1        0.0232
     21 C          63.9941   83.9540   11.9990 C.3     1  UNL1        0.0922
     22 C          63.8945   91.9374   10.6803 C.3     1  UNL1        0.0940
     23 C          65.1760   92.3542   11.3389 C.3     1  UNL1        0.0431
     24 C          66.3125   92.8718   10.5080 C.ar    1  UNL1       -0.0103
     25 C          67.3699   91.9298   10.0136 C.ar    1  UNL1       -0.0034
     26 C          68.5065   92.4475    9.1826 C.ar    1  UNL1       -0.0003
     27 C          68.5855   93.9071    8.8460 C.ar    1  UNL1        0.0008
     28 C          67.5280   94.8491    9.3404 C.ar    1  UNL1        0.0111
     29 C          66.3915   94.3315   10.1714 C.ar    1  UNL1        0.0537
     30 CL         65.3341   95.2735   10.6658 Cl      1  UNL1       -0.0826
     31 C          65.3211   92.2535   12.8285 C.3     1  UNL1        0.0120
     32 C          66.4746   92.9213   13.5165 C.3     1  UNL1        0.0421
     33 C          67.6564   92.1099   13.9579 C.2     1  UNL1        0.0503
     34 O          67.6895   91.5220   15.3375 O.co2   1  UNL1       -0.5492
     35 O          68.8053   91.8863   13.0196 O.co2   1  UNL1       -0.5492
@<TRIPOS>UNITY_ATOM_ATTR
34 1
charge -1
@<TRIPOS>BOND
     1     5     6    1
     2     6     7   ar
     3     7    17    1
     4    17    18    1
     5    18    19    1
     6    19    20    1
     7    20    21    1
     8     7     8   ar
     9     8     9   ar
    10     9    10   ar
    11    10    11   ar
    12    11    12   ar
    13    12    13    1
    14    12    14   ar
    15    14    15   ar
    16    15    16   ar
    17    16     1    1
    18     1     2    2
    19     1     3   am
    20     3    22    1
    21    23    22    1
    22    23    31    1
    23    31    32    1
    24    32    33    1
    25    33    34   ar
    26    33    35   ar
    27    23    24    1
    28    24    25   ar
    29    25    26   ar
    30    26    27   ar
    31    27    28   ar
    32    28    29   ar
    33    29    30    1
    34    16     6   ar
    35    29    24   ar
    36    21    17    1
    37    15     9   ar
    38     3     4    1
@<TRIPOS>MOLECULE
*****
 35 38 0 0 0
SMALL
GASTEIGER

@<TRIPOS>ATOM
      1 C          62.3178   89.6255   11.1962 C.2     1  UNL1        0.2457
      2 O          61.5528   90.3096   12.2902 O.2     1  UNL1       -0.2702
      3 N          63.3482   90.3845   10.4137 N.am    1  UNL1       -0.3005
      4 H          63.8502   89.9355    9.6957 H       1  UNL1        0.1497
      5 C          63.5103   87.4759   12.9158 C.3     1  UNL1        0.0341
      6 C          62.6486   87.1076   11.7444 C.ar    1  UNL1        0.0141
      7 C          62.3832   85.6645   11.4329 C.ar    1  UNL1        0.1277
      8 N          61.5215   85.2963   10.2617 N.ar    1  UNL1       -0.2310
      9 C          60.9252   86.3711    9.4018 C.ar    1  UNL1        0.0828
     10 C          60.0636   86.0028    8.2306 C.ar    1  UNL1        0.0197
     11 C          59.4674   87.0777    7.3708 C.ar    1  UNL1        0.0082
     12 C          59.7328   88.5207    7.6823 C.ar    1  UNL1        0.0347
     13 BR         59.1365   89.5956    6.8225 Br      1  UNL1       -0.0490
     14 C          60.5944   88.8890    8.8536 C.ar    1  UNL1        0.0083
     15 C          61.1907   87.8142    9.7133 C.ar    1  UNL1        0.0223
     16 C          62.0523   88.1824   10.8847 C.ar    1  UNL1        0.0535
     17 N          62.9795   84.5897   12.2927 N.pl3   1  UNL1       -0.2935
     18 C          62.6347   84.3150   13.7265 C.3     1  UNL1        0.0922
     19 C          63.4673   83.1564   14.1897 C.3     1  UNL1        0.0232
     20 C          64.3266   82.7151   13.0421 C.3     1  UNL1        0.0232
     21 C          64.0251   83.6009   11.8698 C.3     1  UNL1        0.0922
     22 C          63.6136   91.8276   10.7252 C.3     1  UNL1        0.0940
     23 C          64.9840   92.2630   11.1522 C.3     1  UNL1        0.0431
     24 C          65.3612   92.2358   12.6037 C.ar    1  UNL1       -0.0103
     25 C          65.0380   91.0335   13.4402 C.ar    1  UNL1       -0.0034
     26 C          65.4153   91.0064   14.8918 C.ar    1  UNL1       -0.0003
     27 C          66.1158   92.1816   15.5067 C.ar    1  UNL1        0.0008
     28 C          66.4390   93.3839   14.6702 C.ar    1  UNL1        0.0111
     29 C          66.0618   93.4111   13.2187 C.ar    1  UNL1        0.0537
     30 CL         66.3850   94.6134   12.3821 Cl      1  UNL1       -0.0826
     31 C          65.9772   92.7255   10.1276 C.3     1  UNL1        0.0120
     32 C          67.3473   92.1167   10.0829 C.3     1  UNL1        0.0421
     33 C          68.4181   92.7406    9.2379 C.2     1  UNL1        0.0503
     34 O          69.0478   91.9561    8.1253 O.co2   1  UNL1       -0.5492
     35 O          68.8591   94.1492    9.5055 O.co2   1  UNL1       -0.5492
@<TRIPOS>UNITY_ATOM_ATTR
34 1
charge -1
@<TRIPOS>BOND
     1     5     6    1
     2     6     7   ar
     3     7    17    1
     4    17    18    1
     5    18    19    1
     6    19    20    1
     7    20    21    1
     8     7     8   ar
     9     8     9   ar
    10     9    10   ar
    11    10    11   ar
    12    11    12   ar
    13    12    13    1
    14    12    14   ar
    15    14    15   ar
    16    15    16   ar
    17    16     1    1
    18     1     2    2
    19     1     3   am
    20     3    22    1
    21    23    22    1
    22    23    31    1
    23    31    32    1
    24    32    33    1
    25    33    34   ar
    26    33    35   ar
    27    23    24    1
    28    24    25   ar
    29    25    26   ar
    30    26    27   ar
    31    27    28   ar
    32    28    29   ar
    33    29    30    1
    34    16     6   ar
    35    29    24   ar
    36    21    17    1
    37    15     9   ar
    38     3     4    1
@<TRIPOS>MOLECULE
*****
 35 38 0 0 0
SMALL
GASTEIGER

@<TRIPOS>ATOM
      1 C          62.3163   89.9292   11.6993 C.2     1  UNL1        0.2457
      2 O          61.0334   90.5077   11.1803 O.2     1  UNL1       -0.2702
      3 N          62.4979   88.4414   11.7597 N.am    1  UNL1       -0.3005
      4 H          63.3399   88.0617   12.1004 H       1  UNL1        0.1497
      5 C          63.7068   91.7138    9.7291 C.3     1  UNL1        0.0341
      6 C          64.1128   91.7307   11.1731 C.ar    1  UNL1        0.0141
      7 C          65.2142   92.6399   11.6318 C.ar    1  UNL1        0.1277
      8 N          65.6203   92.6568   13.0757 N.ar    1  UNL1       -0.2310
      9 C          64.9250   91.7644   14.0609 C.ar    1  UNL1        0.0828
     10 C          65.3311   91.7813   15.5047 C.ar    1  UNL1        0.0197
     11 C          64.6359   90.8890   16.4898 C.ar    1  UNL1        0.0082
     12 C          63.5346   89.9798   16.0310 C.ar    1  UNL1        0.0347
     13 BR         62.8394   89.0875   17.0162 Br      1  UNL1       -0.0490
     14 C          63.1285   89.9629   14.5871 C.ar    1  UNL1        0.0083
     15 C          63.8237   90.8552   13.6021 C.ar    1  UNL1        0.0223
     16 C          63.4176   90.8384   12.1581 C.ar    1  UNL1        0.0535
     17 N          65.9094   93.5322   10.6467 N.pl3   1  UNL1       -0.2935
     18 C          67.0847   93.1567    9.7936 C.3     1  UNL1        0.0922
     19 C          67.4531   94.3491    8.9613 C.3     1  UNL1        0.0232
     20 C          66.5054   95.4615    9.3001 C.3     1  UNL1        0.0232
     21 C          65.5514   94.9566   10.3417 C.3     1  UNL1        0.0922
     22 C          61.3966   87.5322   11.3009 C.3     1  UNL1        0.0940
     23 C          61.6746   86.4780   10.2707 C.3     1  UNL1        0.0431
     24 C          62.4940   85.2745   10.6313 C.ar    1  UNL1       -0.0103
     25 C          62.5540   84.8073   12.0554 C.ar    1  UNL1       -0.0034
     26 C          63.3734   83.6038   12.4160 C.ar    1  UNL1       -0.0003
     27 C          64.1329   82.8675   11.3525 C.ar    1  UNL1        0.0008
     28 C          64.0729   83.3347    9.9284 C.ar    1  UNL1        0.0111
     29 C          63.2535   84.5382    9.5677 C.ar    1  UNL1        0.0537
     30 CL         63.1935   85.0054    8.1436 Cl      1  UNL1       -0.0826
     31 C          61.1331   86.6274    8.8798 C.3     1  UNL1        0.0120
     32 C          60.5569   87.9393    8.4361 C.3     1  UNL1        0.0421
     33 C          59.2894   87.9690    7.6345 C.2     1  UNL1        0.0503
     34 O          58.3050   86.8427    7.7458 O.co2   1  UNL1       -0.5492
     35 O          59.0064   89.1250    6.7215 O.co2   1  UNL1       -0.5492
@<TRIPOS>UNITY_ATOM_ATTR
34 1
charge -1
@<TRIPOS>BOND
     1     5     6    1
     2     6     7   ar
     3     7    17    1
     4    17    18    1
     5    18    19    1
     6    19    20    1
     7    20    21    1
     8     7     8   ar
     9     8     9   ar
    10     9    10   ar
    11    10    11   ar
    12    11    12   ar
    13    12    13    1
    14    12    14   ar
    15    14    15   ar
    16    15    16   ar
    17    16     1    1
    18     1     2    2
    19     1     3   am
    20     3    22    1
    21    23    22    1
    22    23    31    1
    23    31    32    1
    24    32    33    1
    25    33    34   ar
    26    33    35   ar
    27    23    24    1
    28    24    25   ar
    29    25    26   ar
    30    26    27   ar
    31    27    28   ar
    32    28    29   ar
    33    29    30    1
    34    16     6   ar
    35    29    24   ar
    36    21    17    1
    37    15     9   ar
    38     3     4    1
@<TRIPOS>MOLECULE
*****
 35 38 0 0 0
SMALL
GASTEIGER

@<TRIPOS>ATOM
      1 C          63.4086   90.0336   12.6151 C.2     1  UNL1        0.2457
      2 O          63.1210   90.3413   14.0548 O.2     1  UNL1       -0.2702
      3 N          64.2947   90.9429   11.8163 N.am    1  UNL1       -0.3005
      4 H          64.4835   90.7409   10.8714 H       1  UNL1        0.1497
      5 C          61.5920   90.3259   10.2456 C.3     1  UNL1        0.0341
      6 C          61.9019   88.9627   10.7895 C.ar    1  UNL1        0.0141
      7 C          61.3034   87.7457   10.1486 C.ar    1  UNL1        0.1277
      8 N          61.6132   86.3825   10.6925 N.ar    1  UNL1       -0.2310
      9 C          62.5215   86.2363   11.8773 C.ar    1  UNL1        0.0828
     10 C          62.8313   84.8732   12.4212 C.ar    1  UNL1        0.0197
     11 C          63.7396   84.7271   13.6059 C.ar    1  UNL1        0.0082
     12 C          64.3380   85.9441   14.2468 C.ar    1  UNL1        0.0347
     13 BR         65.2463   85.7979   15.4316 Br      1  UNL1       -0.0490
     14 C          64.0282   87.3072   13.7029 C.ar    1  UNL1        0.0083
     15 C          63.1200   87.4534   12.5182 C.ar    1  UNL1        0.0223
     16 C          62.8101   88.8165   11.9743 C.ar    1  UNL1        0.0535
     17 N          60.3952   87.8918    8.9638 N.pl3   1  UNL1       -0.2935
     18 C          60.0813   89.1711    8.2461 C.3     1  UNL1        0.0922
     19 C          59.1334   88.8543    7.1274 C.3     1  UNL1        0.0232
     20 C          58.8616   87.3793    7.1538 C.3     1  UNL1        0.0232
     21 C          59.6414   86.7845    8.2887 C.3     1  UNL1        0.0922
     22 C          64.8931   92.1599   12.4572 C.3     1  UNL1        0.0940
     23 C          66.3720   92.3981   12.3793 C.3     1  UNL1        0.0431
     24 C          66.9808   92.9267   11.1144 C.ar    1  UNL1       -0.0103
     25 C          67.7691   92.0136   10.2228 C.ar    1  UNL1       -0.0034
     26 C          68.3779   92.5422    8.9579 C.ar    1  UNL1       -0.0003
     27 C          68.1985   93.9838    8.5846 C.ar    1  UNL1        0.0008
     28 C          67.4103   94.8969    9.4762 C.ar    1  UNL1        0.0111
     29 C          66.8014   94.3684   10.7410 C.ar    1  UNL1        0.0537
     30 CL         66.0132   95.2815   11.6326 Cl      1  UNL1       -0.0826
     31 C          67.2421   92.1078   13.5662 C.3     1  UNL1        0.0120
     32 C          66.6270   91.6290   14.8477 C.3     1  UNL1        0.0421
     33 C          66.4000   92.5909   15.9760 C.2     1  UNL1        0.0503
     34 O          65.0749   92.6242   16.6781 O.co2   1  UNL1       -0.5492
     35 O          67.4982   93.5195   16.4024 O.co2   1  UNL1       -0.5492
@<TRIPOS>UNITY_ATOM_ATTR
34 1
charge -1
@<TRIPOS>BOND
     1     5     6    1
     2     6     7   ar
     3     7    17    1
     4    17    18    1
     5    18    19    1
     6    19    20    1
     7    20    21    1
     8     7     8   ar
     9     8     9   ar
    10     9    10   ar
    11    10    11   ar
    12    11    12   ar
    13    12    13    1
    14    12    14   ar
    15    14    15   ar
    16    15    16   ar
    17    16     1    1
    18     1     2    2
    19     1     3   am
    20     3    22    1
    21    23    22    1
    22    23    31    1
    23    31    32    1
    24    32    33    1
    25    33    34   ar
    26    33    35   ar
    27    23    24    1
    28    24    25   ar
    29    25    26   ar
    30    26    27   ar
    31    27    28   ar
    32    28    29   ar
    33    29    30    1
    34    16     6   ar
    35    29    24   ar
    36    21    17    1
    37    15     9   ar
    38     3     4    1
@<TRIPOS>MOLECULE
*****
 35 38 0 0 0
SMALL
GASTEIGER

@<TRIPOS>ATOM
      1 C          64.0813   87.3523   13.8363 C.2     1  UNL1        0.2457
      2 O          65.0041   86.8177   14.8911 O.2     1  UNL1       -0.2702
      3 N          63.9067   88.8332   13.6731 N.am    1  UNL1       -0.3005
      4 H          63.3010   89.1841   12.9808 H       1  UNL1        0.1497
      5 C          64.0226   84.4212   14.4726 C.3     1  UNL1        0.0341
      6 C          63.3038   84.9406   13.2629 C.ar    1  UNL1        0.0141
      7 C          62.5556   83.9944   12.3713 C.ar    1  UNL1        0.1277
      8 N          61.8367   84.5138   11.1615 N.ar    1  UNL1       -0.2310
      9 C          61.8661   85.9794   10.8434 C.ar    1  UNL1        0.0828
     10 C          61.1472   86.4987    9.6336 C.ar    1  UNL1        0.0197
     11 C          61.1766   87.9643    9.3155 C.ar    1  UNL1        0.0082
     12 C          61.9248   88.9105   10.2071 C.ar    1  UNL1        0.0347
     13 BR         61.9541   90.3761    9.8889 Br      1  UNL1       -0.0490
     14 C          62.6436   88.3911   11.4168 C.ar    1  UNL1        0.0083
     15 C          62.6143   86.9256   11.7349 C.ar    1  UNL1        0.0223
     16 C          63.3331   86.4061   12.9447 C.ar    1  UNL1        0.0535
     17 N          62.5262   82.5288   12.6895 N.pl3   1  UNL1       -0.2935
     18 C          63.0266   81.4247   11.8060 C.3     1  UNL1        0.0922
     19 C          62.8010   80.1235   12.5174 C.3     1  UNL1        0.0232
     20 C          62.1613   80.4235   13.8406 C.3     1  UNL1        0.0232
     21 C          61.9915   81.9101   13.9469 C.3     1  UNL1        0.0922
     22 C          64.6549   89.7794   14.5647 C.3     1  UNL1        0.0940
     23 C          65.1469   91.0891   14.0237 C.3     1  UNL1        0.0431
     24 C          66.3914   91.7117   14.5836 C.ar    1  UNL1       -0.0103
     25 C          67.6849   91.6097   13.8309 C.ar    1  UNL1       -0.0034
     26 C          68.9295   92.2324   14.3908 C.ar    1  UNL1       -0.0003
     27 C          68.8805   92.9570   15.7033 C.ar    1  UNL1        0.0008
     28 C          67.5870   93.0589   16.4559 C.ar    1  UNL1        0.0111
     29 C          66.3425   92.4363   15.8961 C.ar    1  UNL1        0.0537
     30 CL         65.0490   92.5382   16.6487 Cl      1  UNL1       -0.0826
     31 C          64.3944   91.7761   12.9230 C.3     1  UNL1        0.0120
     32 C          65.0293   91.9494   11.5751 C.3     1  UNL1        0.0421
     33 C          65.7360   93.2288   11.2379 C.2     1  UNL1        0.0503
     34 O          66.1628   93.5002    9.8257 O.co2   1  UNL1       -0.5492
     35 O          66.0159   94.2369   12.3129 O.co2   1  UNL1       -0.5492
@<TRIPOS>UNITY_ATOM_ATTR
34 1
charge -1
@<TRIPOS>BOND
     1     5     6    1
     2     6     7   ar
     3     7    17    1
     4    17    18    1
     5    18    19    1
     6    19    20    1
     7    20    21    1
     8     7     8   ar
     9     8     9   ar
    10     9    10   ar
    11    10    11   ar
    12    11    12   ar
    13    12    13    1
    14    12    14   ar
    15    14    15   ar
    16    15    16   ar
    17    16     1    1
    18     1     2    2
    19     1     3   am
    20     3    22    1
    21    23    22    1
    22    23    31    1
    23    31    32    1
    24    32    33    1
    25    33    34   ar
    26    33    35   ar
    27    23    24    1
    28    24    25   ar
    29    25    26   ar
    30    26    27   ar
    31    27    28   ar
    32    28    29   ar
    33    29    30    1
    34    16     6   ar
    35    29    24   ar
    36    21    17    1
    37    15     9   ar
    38     3     4    1
@<TRIPOS>MOLECULE
*****
 35 38 0 0 0
SMALL
GASTEIGER

@<TRIPOS>ATOM
      1 C          63.1786   89.6400   12.7554 C.2     1  UNL1        0.2457
      2 O          62.9532   89.7498   14.2342 O.2     1  UNL1       -0.2702
      3 N          63.9385   90.7114   12.0309 N.am    1  UNL1       -0.3005
      4 H          64.0864   90.6394   11.0603 H       1  UNL1        0.1497
      5 C          61.4038   90.0599   10.3734 C.3     1  UNL1        0.0341
      6 C          61.7567   88.6688   10.8099 C.ar    1  UNL1        0.0141
      7 C          61.2222   87.4877   10.0554 C.ar    1  UNL1        0.1277
      8 N          61.5751   86.0967   10.4919 N.ar    1  UNL1       -0.2310
      9 C          62.4625   85.8867   11.6829 C.ar    1  UNL1        0.0828
     10 C          62.8154   84.4957   12.1194 C.ar    1  UNL1        0.0197
     11 C          63.7027   84.2859   13.3103 C.ar    1  UNL1        0.0082
     12 C          64.2373   85.4670   14.0648 C.ar    1  UNL1        0.0347
     13 BR         65.1247   85.2570   15.2559 Br      1  UNL1       -0.0490
     14 C          63.8844   86.8580   13.6284 C.ar    1  UNL1        0.0083
     15 C          62.9970   87.0678   12.4374 C.ar    1  UNL1        0.0223
     16 C          62.6441   88.4589   12.0009 C.ar    1  UNL1        0.0535
     17 N          60.3347   87.6976    8.8644 N.pl3   1  UNL1       -0.2935
     18 C          59.6180   86.6250    8.0990 C.3     1  UNL1        0.0922
     19 C          58.8485   87.2815    6.9912 C.3     1  UNL1        0.0232
     20 C          59.0898   88.7598    7.0720 C.3     1  UNL1        0.0232
     21 C          60.0083   89.0169    8.2297 C.3     1  UNL1        0.0922
     22 C          64.4730   91.8925   12.7854 C.3     1  UNL1        0.0940
     23 C          65.8892   92.3391   12.5740 C.3     1  UNL1        0.0431
     24 C          66.8295   92.4278   13.7394 C.ar    1  UNL1       -0.0103
     25 C          66.3416   92.9484   15.0588 C.ar    1  UNL1       -0.0034
     26 C          67.2819   93.0370   16.2242 C.ar    1  UNL1       -0.0003
     27 C          68.7101   92.6050   16.0701 C.ar    1  UNL1        0.0008
     28 C          69.1979   92.0843   14.7506 C.ar    1  UNL1        0.0111
     29 C          68.2577   91.9957   13.5853 C.ar    1  UNL1        0.0537
     30 CL         68.7456   91.4751   12.2659 Cl      1  UNL1       -0.0826
     31 C          66.3653   92.6971   11.1974 C.3     1  UNL1        0.0120
     32 C          65.9762   94.0110   10.5873 C.3     1  UNL1        0.0421
     33 C          67.0293   95.0289   10.2639 C.2     1  UNL1        0.0503
     34 O          66.8380   96.4605   10.6686 O.co2   1  UNL1       -0.5492
     35 O          68.2739   94.6152    9.5358 O.co2   1  UNL1       -0.5492
@<TRIPOS>UNITY_ATOM_ATTR
34 1
charge -1
@<TRIPOS>BOND
     1     5     6    1
     2     6     7   ar
     3     7    17    1
     4    17    18    1
     5    18    19    1
     6    19    20    1
     7    20    21    1
     8     7     8   ar
     9     8     9   ar
    10     9    10   ar
    11    10    11   ar
    12    11    12   ar
    13    12    13    1
    14    12    14   ar
    15    14    15   ar
    16    15    16   ar
    17    16     1    1
    18     1     2    2
    19     1     3   am
    20     3    22    1
    21    23    22    1
    22    23    31    1
    23    31    32    1
    24    32    33    1
    25    33    34   ar
    26    33    35   ar
    27    23    24    1
    28    24    25   ar
    29    25    26   ar
    30    26    27   ar
    31    27    28   ar
    32    28    29   ar
    33    29    30    1
    34    16     6   ar
    35    29    24   ar
    36    21    17    1
    37    15     9   ar
    38     3     4    1
@<TRIPOS>MOLECULE
*****
 35 38 0 0 0
SMALL
GASTEIGER

@<TRIPOS>ATOM
      1 C          64.1909   86.8155   13.9397 C.2     1  UNL1        0.2457
      2 O          65.0551   86.2354   15.0198 O.2     1  UNL1       -0.2702
      3 N          64.1235   88.3021   13.7505 N.am    1  UNL1       -0.3005
      4 H          63.5563   88.6828   13.0416 H       1  UNL1        0.1497
      5 C          64.0271   83.8819   14.5454 C.3     1  UNL1        0.0341
      6 C          63.3121   84.4424   13.3517 C.ar    1  UNL1        0.0141
      7 C          62.5153   83.5360   12.4609 C.ar    1  UNL1        0.1277
      8 N          61.8003   84.0965   11.2673 N.ar    1  UNL1       -0.2310
      9 C          61.8822   85.5633   10.9645 C.ar    1  UNL1        0.0828
     10 C          61.1673   86.1238    9.7709 C.ar    1  UNL1        0.0197
     11 C          61.2492   87.5906    9.4681 C.ar    1  UNL1        0.0082
     12 C          62.0460   88.4969   10.3589 C.ar    1  UNL1        0.0347
     13 BR         62.1279   89.9638   10.0561 Br      1  UNL1       -0.0490
     14 C          62.7610   87.9365   11.5525 C.ar    1  UNL1        0.0083
     15 C          62.6791   86.4697   11.8553 C.ar    1  UNL1        0.0223
     16 C          63.3940   85.9092   13.0489 C.ar    1  UNL1        0.0535
     17 N          62.4334   82.0691   12.7638 N.pl3   1  UNL1       -0.2935
     18 C          61.6600   81.4425   13.8859 C.3     1  UNL1        0.0922
     19 C          61.8591   79.9574   13.8133 C.3     1  UNL1        0.0232
     20 C          62.7556   79.6664   12.6464 C.3     1  UNL1        0.0232
     21 C          63.1105   80.9716   11.9978 C.3     1  UNL1        0.0922
     22 C          64.9204   89.2084   14.6413 C.3     1  UNL1        0.0940
     23 C          64.7415   90.6950   14.5517 C.3     1  UNL1        0.0431
     24 C          65.2994   91.4483   13.3807 C.ar    1  UNL1       -0.0103
     25 C          64.4577   91.6645   12.1580 C.ar    1  UNL1       -0.0034
     26 C          65.0156   92.4179   10.9870 C.ar    1  UNL1       -0.0003
     27 C          66.4152   92.9549   11.0386 C.ar    1  UNL1        0.0008
     28 C          67.2569   92.7386   12.2612 C.ar    1  UNL1        0.0111
     29 C          66.6990   91.9853   13.4322 C.ar    1  UNL1        0.0537
     30 CL         67.5407   91.7691   14.6548 Cl      1  UNL1       -0.0826
     31 C          64.0047   91.4283   15.6331 C.3     1  UNL1        0.0120
     32 C          63.5580   90.6976   16.8645 C.3     1  UNL1        0.0421
     33 C          62.7677   89.4289   16.7386 C.2     1  UNL1        0.0503
     34 O          63.1326   88.2327   17.5667 O.co2   1  UNL1       -0.5492
     35 O          61.6124   89.3565   15.7846 O.co2   1  UNL1       -0.5492
@<TRIPOS>UNITY_ATOM_ATTR
34 1
charge -1
@<TRIPOS>BOND
     1     5     6    1
     2     6     7   ar
     3     7    17    1
     4    17    18    1
     5    18    19    1
     6    19    20    1
     7    20    21    1
     8     7     8   ar
     9     8     9   ar
    10     9    10   ar
    11    10    11   ar
    12    11    12   ar
    13    12    13    1
    14    12    14   ar
    15    14    15   ar
    16    15    16   ar
    17    16     1    1
    18     1     2    2
    19     1     3   am
    20     3    22    1
    21    23    22    1
    22    23    31    1
    23    31    32    1
    24    32    33    1
    25    33    34   ar
    26    33    35   ar
    27    23    24    1
    28    24    25   ar
    29    25    26   ar
    30    26    27   ar
    31    27    28   ar
    32    28    29   ar
    33    29    30    1
    34    16     6   ar
    35    29    24   ar
    36    21    17    1
    37    15     9   ar
    38     3     4    1
@<TRIPOS>MOLECULE
*****
 35 38 0 0 0
SMALL
GASTEIGER

@<TRIPOS>ATOM
      1 C          63.6977   88.2216   14.3420 C.2     1  UNL1        0.2457
      2 O          62.8932   88.3078   15.6049 O.2     1  UNL1       -0.2702
      3 N          64.0228   86.8823   13.7497 N.am    1  UNL1       -0.3005
      4 H          64.5509   86.8257   12.9207 H       1  UNL1        0.1497
      5 C          65.9084   89.8315   15.5754 C.3     1  UNL1        0.0341
      6 C          65.2825   90.2796   14.2879 C.ar    1  UNL1        0.0141
      7 C          65.7621   91.5326   13.6171 C.ar    1  UNL1        0.1277
      8 N          65.1363   91.9807   12.3296 N.ar    1  UNL1       -0.2310
      9 C          64.0310   91.1757   11.7129 C.ar    1  UNL1        0.0828
     10 C          63.4052   91.6238   10.4254 C.ar    1  UNL1        0.0197
     11 C          62.2999   90.8189    9.8087 C.ar    1  UNL1        0.0082
     12 C          61.8204   89.5658   10.4795 C.ar    1  UNL1        0.0347
     13 BR         60.7151   88.7609    9.8628 Br      1  UNL1       -0.0490
     14 C          62.4462   89.1177   11.7670 C.ar    1  UNL1        0.0083
     15 C          63.5514   89.9227   12.3837 C.ar    1  UNL1        0.0223
     16 C          64.1773   89.4746   13.6712 C.ar    1  UNL1        0.0535
     17 N          66.8674   92.3376   14.2339 N.pl3   1  UNL1       -0.2935
     18 C          66.6980   93.5618   15.0839 C.3     1  UNL1        0.0922
     19 C          68.0621   94.0405   15.4843 C.3     1  UNL1        0.0232
     20 C          69.0745   93.1120   14.8816 C.3     1  UNL1        0.0232
     21 C          68.3361   92.0596   14.1089 C.3     1  UNL1        0.0922
     22 C          63.5433   85.6293   14.4204 C.3     1  UNL1        0.0940
     23 C          62.7913   84.5976   13.6329 C.3     1  UNL1        0.0431
     24 C          62.9576   84.5226   12.1441 C.ar    1  UNL1       -0.0103
     25 C          62.1661   85.4344   11.2541 C.ar    1  UNL1       -0.0034
     26 C          62.3324   85.3593    9.7652 C.ar    1  UNL1       -0.0003
     27 C          63.2902   84.3724    9.1663 C.ar    1  UNL1        0.0008
     28 C          64.0818   83.4606   10.0563 C.ar    1  UNL1        0.0111
     29 C          63.9155   83.5357   11.5451 C.ar    1  UNL1        0.0537
     30 CL         64.7070   82.6239   12.4351 Cl      1  UNL1       -0.0826
     31 C          61.8731   83.6410   14.3342 C.3     1  UNL1        0.0120
     32 C          62.3218   82.2366   14.6101 C.3     1  UNL1        0.0421
     33 C          61.6264   81.0835   13.9493 C.2     1  UNL1        0.0503
     34 O          60.2129   80.7470   14.3216 O.co2   1  UNL1       -0.5492
     35 O          62.3446   80.2669   12.9160 O.co2   1  UNL1       -0.5492
@<TRIPOS>UNITY_ATOM_ATTR
34 1
charge -1
@<TRIPOS>BOND
     1     5     6    1
     2     6     7   ar
     3     7    17    1
     4    17    18    1
     5    18    19    1
     6    19    20    1
     7    20    21    1
     8     7     8   ar
     9     8     9   ar
    10     9    10   ar
    11    10    11   ar
    12    11    12   ar
    13    12    13    1
    14    12    14   ar
    15    14    15   ar
    16    15    16   ar
    17    16     1    1
    18     1     2    2
    19     1     3   am
    20     3    22    1
    21    23    22    1
    22    23    31    1
    23    31    32    1
    24    32    33    1
    25    33    34   ar
    26    33    35   ar
    27    23    24    1
    28    24    25   ar
    29    25    26   ar
    30    26    27   ar
    31    27    28   ar
    32    28    29   ar
    33    29    30    1
    34    16     6   ar
    35    29    24   ar
    36    21    17    1
    37    15     9   ar
    38     3     4    1
@<TRIPOS>MOLECULE
*****
 35 38 0 0 0
SMALL
GASTEIGER

@<TRIPOS>ATOM
      1 C          63.4045   86.3581   13.0528 C.2     1  UNL1        0.2457
      2 O          62.3418   85.4721   12.4735 O.2     1  UNL1       -0.2702
      3 N          64.5372   85.7593   13.8329 N.am    1  UNL1       -0.3005
      4 H          65.2347   86.3408   14.2131 H       1  UNL1        0.1497
      5 C          64.7737   88.1993   14.9854 C.3     1  UNL1        0.0341
      6 C          64.0192   88.7636   13.8182 C.ar    1  UNL1        0.0141
      7 C          63.9494   90.2484   13.6173 C.ar    1  UNL1        0.1277
      8 N          63.1949   90.8127   12.4501 N.ar    1  UNL1       -0.2310
      9 C          62.5103   89.8920   11.4837 C.ar    1  UNL1        0.0828
     10 C          61.7558   90.4563   10.3165 C.ar    1  UNL1        0.0197
     11 C          61.0713   89.5357    9.3502 C.ar    1  UNL1        0.0082
     12 C          61.1411   88.0508    9.5511 C.ar    1  UNL1        0.0347
     13 BR         60.4565   87.1302    8.5847 Br      1  UNL1       -0.0490
     14 C          61.8956   87.4866   10.7183 C.ar    1  UNL1        0.0083
     15 C          62.5801   88.4072   11.6846 C.ar    1  UNL1        0.0223
     16 C          63.3346   87.8430   12.8519 C.ar    1  UNL1        0.0535
     17 N          64.6340   91.1690   14.5836 N.pl3   1  UNL1       -0.2935
     18 C          65.8894   91.9470   14.3215 C.3     1  UNL1        0.0922
     19 C          66.2148   92.7321   15.5577 C.3     1  UNL1        0.0232
     20 C          65.1604   92.4392   16.5837 C.3     1  UNL1        0.0232
     21 C          64.1835   91.4732   15.9817 C.3     1  UNL1        0.0922
     22 C          64.6070   84.2745   14.0338 C.3     1  UNL1        0.0940
     23 C          63.3616   83.5012   14.3517 C.3     1  UNL1        0.0431
     24 C          63.0513   82.2387   13.6035 C.ar    1  UNL1       -0.0103
     25 C          62.2824   81.1392   14.2742 C.ar    1  UNL1       -0.0034
     26 C          61.9721   79.8767   13.5260 C.ar    1  UNL1       -0.0003
     27 C          62.4306   79.7137   12.1071 C.ar    1  UNL1        0.0008
     28 C          63.1995   80.8133   11.4364 C.ar    1  UNL1        0.0111
     29 C          63.5098   82.0758   12.1846 C.ar    1  UNL1        0.0537
     30 CL         64.2787   83.1753   11.5139 Cl      1  UNL1       -0.0826
     31 C          62.4266   83.9905   15.4177 C.3     1  UNL1        0.0120
     32 C          62.9670   84.7169   16.6136 C.3     1  UNL1        0.0421
     33 C          62.2326   85.9024   17.1660 C.2     1  UNL1        0.0503
     34 O          62.9338   86.8568   18.0865 O.co2   1  UNL1       -0.5492
     35 O          60.7969   86.1335   16.7979 O.co2   1  UNL1       -0.5492
@<TRIPOS>UNITY_ATOM_ATTR
34 1
charge -1
@<TRIPOS>BOND
     1     5     6    1
     2     6     7   ar
     3     7    17    1
     4    17    18    1
     5    18    19    1
     6    19    20    1
     7    20    21    1
     8     7     8   ar
     9     8     9   ar
    10     9    10   ar
    11    10    11   ar
    12    11    12   ar
    13    12    13    1
    14    12    14   ar
    15    14    15   ar
    16    15    16   ar
    17    16     1    1
    18     1     2    2
    19     1     3   am
    20     3    22    1
    21    23    22    1
    22    23    31    1
    23    31    32    1
    24    32    33    1
    25    33    34   ar
    26    33    35   ar
    27    23    24    1
    28    24    25   ar
    29    25    26   ar
    30    26    27   ar
    31    27    28   ar
    32    28    29   ar
    33    29    30    1
    34    16     6   ar
    35    29    24   ar
    36    21    17    1
    37    15     9   ar
    38     3     4    1
