@<TRIPOS>MOLECULE
*****
 40 44 0 0 0
SMALL
GASTEIGER

@<TRIPOS>ATOM
      1 C          62.8197   85.1380   12.3749 C.ar    1  UNL1        0.1167
      2 N          63.5425   85.9667   13.3951 N.ar    1  UNL1       -0.2312
      3 C          63.2392   87.4096   13.1195 C.ar    1  UNL1        0.0981
      4 C          62.3289   87.4727   11.9289 C.ar    1  UNL1        0.0753
      5 N          62.0696   86.0688   11.4687 N.ar    1  UNL1       -0.3408
      6 H          61.5061   85.8046   10.7059 H       1  UNL1        0.1671
      7 C          63.7556   88.5834   13.8978 C.ar    1  UNL1        0.0207
      8 C          63.4603   88.6997   15.3638 C.ar    1  UNL1        0.0032
      9 C          63.9766   89.8734   16.1420 C.ar    1  UNL1        0.0208
     10 C          64.7882   90.9309   15.4542 C.ar    1  UNL1        0.1017
     11 N          65.4261   92.1920   15.9570 N.ar    1  UNL1       -0.2126
     12 C          66.1156   92.8551   14.8016 C.ar    1  UNL1        0.2143
     13 N          66.8823   94.1434   14.8538 N.pl3   1  UNL1       -0.3275
     14 N          65.9038   92.0038   13.5849 N.ar    1  UNL1       -0.1822
     15 C          65.0835   90.8146   13.9882 C.ar    1  UNL1        0.1026
     16 C          64.5671   89.6409   13.2100 C.ar    1  UNL1        0.0221
     17 H          66.9661   94.6323   15.7042 H       1  UNL1        0.1451
     18 H          67.3017   94.5000   14.0376 H       1  UNL1        0.1451
     19 S          66.4215   92.2913   12.2067 S.O2    1  UNL1        0.0667
     20 O          65.0254   92.5849   11.7435 O.2     1  UNL1       -0.1521
     21 O          67.8177   91.9977   12.6699 O.2     1  UNL1       -0.1521
     22 C          66.9393   92.5788   10.8285 C.3     1  UNL1        0.1516
     23 C          68.1828   91.8985   10.3376 C.3     1  UNL1        0.0275
     24 C          66.2137   93.5463    9.9414 C.3     1  UNL1        0.0275
     25 N          62.8892   80.6480   12.0839 N.3     1  UNL1       -0.2727
     26 C          62.3430   81.3114   13.3132 C.3     1  UNL1        0.0725
     27 C          62.3198   82.8081   13.4102 C.3     1  UNL1        0.0248
     28 C          62.8429   83.6413   12.2779 C.3     1  UNL1        0.0595
     29 C          63.3890   82.9777   11.0485 C.3     1  UNL1        0.0248
     30 C          63.4122   81.4812   10.9514 C.3     1  UNL1        0.0725
     31 C          62.9123   79.1513   11.9868 C.3     1  UNL1        0.0720
     32 C          63.1337   77.0168   10.5223 C.3     1  UNL1        0.0014
     33 C          62.8558   78.4858   10.6437 C.3     1  UNL1        0.0160
     34 C          62.5216   79.2894    9.4221 C.3     1  UNL1        0.0014
     35 C          61.7752   88.7206   11.3076 C.ar    1  UNL1        0.0171
     36 C          60.3562   89.1260   11.5759 C.ar    1  UNL1        0.0015
     37 C          59.8024   90.3739   10.9546 C.ar    1  UNL1        0.0000
     38 C          60.6676   91.2165   10.0650 C.ar    1  UNL1        0.0000
     39 C          62.0867   90.8111    9.7967 C.ar    1  UNL1        0.0000
     40 C          62.6404   89.5632   10.4180 C.ar    1  UNL1        0.0015
@<TRIPOS>BOND
     1    32    33    1
     2    33    34    1
     3    33    31    1
     4    31    25    1
     5    25    26    1
     6    26    27    1
     7    27    28    1
     8    28     1    1
     9     1     2   ar
    10     2     3   ar
    11     3     7    1
    12     7     8   ar
    13     8     9   ar
    14     9    10   ar
    15    10    11   ar
    16    11    12   ar
    17    12    13    1
    18    12    14   ar
    19    14    19    1
    20    19    20    2
    21    19    21    2
    22    19    22    1
    23    22    23    1
    24    22    24    1
    25    14    15   ar
    26    15    16   ar
    27     3     4   ar
    28     4    35    1
    29    35    36   ar
    30    36    37   ar
    31    37    38   ar
    32    38    39   ar
    33    39    40   ar
    34     4     5   ar
    35    28    29    1
    36    29    30    1
    37    30    25    1
    38     5     1   ar
    39    16     7   ar
    40    40    35   ar
    41    15    10   ar
    42    13    17    1
    43    13    18    1
    44     5     6    1
@<TRIPOS>MOLECULE
*****
 40 44 0 0 0
SMALL
GASTEIGER

@<TRIPOS>ATOM
      1 C          61.4851   88.6869   10.2393 C.ar    1  UNL1        0.1167
      2 N          62.1586   89.7625   11.0390 N.ar    1  UNL1       -0.2312
      3 C          62.9442   89.1032   12.1336 C.ar    1  UNL1        0.0981
      4 C          62.7563   87.6201   12.0103 C.ar    1  UNL1        0.0753
      5 N          61.8545   87.3628   10.8396 N.ar    1  UNL1       -0.3408
      6 H          61.5572   86.4799   10.5212 H       1  UNL1        0.1671
      7 C          63.7724   89.8039   13.1695 C.ar    1  UNL1        0.0207
      8 C          63.7973   89.2945   14.5802 C.ar    1  UNL1        0.0032
      9 C          64.6255   89.9952   15.6160 C.ar    1  UNL1        0.0208
     10 C          65.4288   91.2053   15.2413 C.ar    1  UNL1        0.1017
     11 N          66.3324   92.0971   16.0403 N.ar    1  UNL1       -0.2126
     12 C          66.8659   93.1576   15.1235 C.ar    1  UNL1        0.2143
     13 N          67.8079   94.2608   15.5052 N.pl3   1  UNL1       -0.3275
     14 N          66.2921   92.9212   13.7579 N.ar    1  UNL1       -0.1822
     15 C          65.4039   91.7146   13.8307 C.ar    1  UNL1        0.1026
     16 C          64.5758   91.0139   12.7948 C.ar    1  UNL1        0.0221
     17 H          68.1312   94.3333   16.4323 H       1  UNL1        0.1451
     18 H          68.1029   94.9123   14.8286 H       1  UNL1        0.1451
     19 S          66.5595   93.7465   12.5342 S.O2    1  UNL1        0.0667
     20 O          66.0146   94.9574   13.2318 O.2     1  UNL1       -0.1521
     21 O          67.1045   92.5356   11.8366 O.2     1  UNL1       -0.1521
     22 C          66.8270   94.5718   11.3105 C.3     1  UNL1        0.1516
     23 C          66.3944   96.0074   11.2648 C.3     1  UNL1        0.0275
     24 C          67.5270   93.9616   10.1326 C.3     1  UNL1        0.0275
     25 N          58.8239   89.3211    6.6665 N.3     1  UNL1       -0.2727
     26 C          58.8415   87.9923    7.3620 C.3     1  UNL1        0.0725
     27 C          59.7286   87.7809    8.5530 C.3     1  UNL1        0.0248
     28 C          60.5980   88.8983    9.0483 C.3     1  UNL1        0.0595
     29 C          60.5804   90.2271    8.3527 C.3     1  UNL1        0.0248
     30 C          59.6934   90.4386    7.1618 C.3     1  UNL1        0.0725
     31 C          57.9367   89.5325    5.4755 C.3     1  UNL1        0.0720
     32 C          56.1899   91.4085    5.0524 C.3     1  UNL1        0.0014
     33 C          57.6092   90.9242    5.0219 C.3     1  UNL1        0.0160
     34 C          58.7011   91.8316    4.5377 C.3     1  UNL1        0.0014
     35 C          63.3635   86.5774   12.9014 C.ar    1  UNL1        0.0171
     36 C          64.2442   86.9877   14.0441 C.ar    1  UNL1        0.0015
     37 C          64.8514   85.9450   14.9352 C.ar    1  UNL1        0.0000
     38 C          64.5778   84.4918   14.6835 C.ar    1  UNL1        0.0000
     39 C          63.6971   84.0813   13.5407 C.ar    1  UNL1        0.0000
     40 C          63.0899   85.1241   12.6498 C.ar    1  UNL1        0.0015
@<TRIPOS>BOND
     1    32    33    1
     2    33    34    1
     3    33    31    1
     4    31    25    1
     5    25    26    1
     6    26    27    1
     7    27    28    1
     8    28     1    1
     9     1     2   ar
    10     2     3   ar
    11     3     7    1
    12     7     8   ar
    13     8     9   ar
    14     9    10   ar
    15    10    11   ar
    16    11    12   ar
    17    12    13    1
    18    12    14   ar
    19    14    19    1
    20    19    20    2
    21    19    21    2
    22    19    22    1
    23    22    23    1
    24    22    24    1
    25    14    15   ar
    26    15    16   ar
    27     3     4   ar
    28     4    35    1
    29    35    36   ar
    30    36    37   ar
    31    37    38   ar
    32    38    39   ar
    33    39    40   ar
    34     4     5   ar
    35    28    29    1
    36    29    30    1
    37    30    25    1
    38     5     1   ar
    39    16     7   ar
    40    40    35   ar
    41    15    10   ar
    42    13    17    1
    43    13    18    1
    44     5     6    1
