@<TRIPOS>MOLECULE
*****
 33 37 0 0 0
SMALL
GASTEIGER

@<TRIPOS>ATOM
      1 C          63.0054   90.9132   11.6080 C.3     1  UNL1        0.0749
      2 C          64.1961   91.8252   11.6216 C.3     1  UNL1        0.0444
      3 C          65.0329   91.9476   12.8605 C.ar    1  UNL1       -0.0101
      4 C          64.6789   91.1580   14.0857 C.ar    1  UNL1       -0.0091
      5 C          65.5158   91.2804   15.3246 C.ar    1  UNL1       -0.0032
      6 C          66.7065   92.1925   15.3382 C.ar    1  UNL1        0.0010
      7 C          67.0605   92.9821   14.1130 C.ar    1  UNL1        0.0142
      8 C          66.2237   92.8597   12.8742 C.ar    1  UNL1        0.0436
      9 C          63.4882   90.2459   14.0721 C.3     1  UNL1        0.0954
     10 N          62.6514   90.1235   12.8332 N.3     1  UNL1       -0.2934
     11 H          61.7017   90.3911   13.0918 H       1  UNL1        0.1236
     12 N          66.5777   93.6494   11.6489 N.pl3   1  UNL1       -0.3077
     13 C          67.2786   92.9818   10.5030 C.3     1  UNL1        0.0921
     14 C          67.6325   93.7714    9.2777 C.3     1  UNL1        0.0369
     15 C          67.2856   95.2287    9.1985 C.3     1  UNL1        0.0542
     16 N          67.6396   96.0183    7.9733 N.3     1  UNL1       -0.3221
     17 C          66.5848   95.8962   10.3444 C.3     1  UNL1        0.0369
     18 C          66.2308   95.1065   11.5697 C.3     1  UNL1        0.0921
     19 H          68.1076   95.4109    7.3007 H       1  UNL1        0.1188
     20 H          68.2622   96.7842    8.2305 H       1  UNL1        0.1188
     21 C          62.1685   90.7907   10.3691 C.3     1  UNL1        0.0886
     22 C          59.7132   90.6234   11.2018 C.3     1  UNL1        0.0899
     23 N          60.8602   90.0587   10.4172 N.3     1  UNL1       -0.2667
     24 C          60.6987   88.7620    9.6806 C.3     1  UNL1        0.0978
     25 C          59.9004   88.7146    8.4117 C.3     1  UNL1        0.0224
     26 C          59.7390   87.4179    7.6751 C.3     1  UNL1        0.0065
     27 C          60.3759   86.1686    8.2075 C.3     1  UNL1        0.0277
     28 C          61.1743   86.2160    9.4766 C.ar    1  UNL1       -0.0073
     29 C          61.8112   84.9667   10.0090 C.ar    1  UNL1       -0.0015
     30 C          62.6096   85.0141   11.2780 C.ar    1  UNL1        0.0203
     31 C          62.7710   86.3108   12.0145 C.ar    1  UNL1        0.0985
     32 N          62.1341   87.5601   11.4821 N.ar    1  UNL1       -0.2471
     33 C          61.3357   87.5127   10.2131 C.ar    1  UNL1        0.0695
@<TRIPOS>BOND
     1    22    23    1
     2    23    21    1
     3     1    21    1
     4     1     2    1
     5     2     3    1
     6     3     4   ar
     7     4     5   ar
     8     5     6   ar
     9     6     7   ar
    10     7     8   ar
    11     8    12    1
    12    12    13    1
    13    13    14    1
    14    14    15    1
    15    15    16    1
    16    15    17    1
    17    17    18    1
    18     4     9    1
    19     9    10    1
    20    24    23    1
    21    24    25    1
    22    25    26    1
    23    26    27    1
    24    27    28    1
    25    28    29   ar
    26    29    30   ar
    27    30    31   ar
    28    31    32   ar
    29    32    33   ar
    30    10     1    1
    31    33    24    1
    32     8     3   ar
    33    18    12    1
    34    33    28   ar
    35    16    19    1
    36    16    20    1
    37    10    11    1
@<TRIPOS>MOLECULE
*****
 33 37 0 0 0
SMALL
GASTEIGER

@<TRIPOS>ATOM
      1 C          61.1325   87.0429   10.4768 C.3     1  UNL1        0.0749
      2 C          61.8529   86.3301   11.5826 C.3     1  UNL1        0.0444
      3 C          62.7743   85.1900   11.2647 C.ar    1  UNL1       -0.0101
      4 C          62.9754   84.7627    9.8410 C.ar    1  UNL1       -0.0091
      5 C          63.8969   83.6226    9.5231 C.ar    1  UNL1       -0.0032
      6 C          64.6173   82.9098   10.6289 C.ar    1  UNL1        0.0010
      7 C          64.4162   83.3370   12.0527 C.ar    1  UNL1        0.0142
      8 C          63.4947   84.4771   12.3706 C.ar    1  UNL1        0.0436
      9 C          62.2550   85.4756    8.7352 C.3     1  UNL1        0.0954
     10 N          61.3336   86.6156    9.0531 N.3     1  UNL1       -0.2934
     11 H          60.4150   86.3621    8.6892 H       1  UNL1        0.1236
     12 N          63.2937   84.9043   13.7943 N.pl3   1  UNL1       -0.3077
     13 C          62.2733   84.2116   14.6483 C.3     1  UNL1        0.0921
     14 C          62.0722   84.6389   16.0720 C.3     1  UNL1        0.0369
     15 C          62.8915   85.7588   16.6418 C.3     1  UNL1        0.0542
     16 N          62.6904   86.1861   18.0655 N.3     1  UNL1       -0.3221
     17 C          63.9118   86.4515   15.7879 C.3     1  UNL1        0.0369
     18 C          64.1129   86.0242   14.3641 C.3     1  UNL1        0.0921
     19 H          61.9640   85.6120   18.4934 H       1  UNL1        0.1188
     20 H          62.4079   87.1659   18.0898 H       1  UNL1        0.1188
     21 C          60.2110   88.1830   10.7947 C.3     1  UNL1        0.0886
     22 C          59.7943   89.4391   13.0305 C.3     1  UNL1        0.0899
     23 N          60.6201   89.2209   11.7974 N.3     1  UNL1       -0.2667
     24 C          61.8550   90.0406   11.5671 C.3     1  UNL1        0.0978
     25 C          62.1395   90.6019   10.2055 C.3     1  UNL1        0.0224
     26 C          63.3744   91.4216    9.9752 C.3     1  UNL1        0.0065
     27 C          64.3249   91.6800   11.1065 C.3     1  UNL1        0.0277
     28 C          64.0405   91.1186   12.4681 C.ar    1  UNL1       -0.0073
     29 C          64.9910   91.3769   13.5994 C.ar    1  UNL1       -0.0015
     30 C          64.7066   90.8155   14.9609 C.ar    1  UNL1        0.0203
     31 C          63.4716   89.9958   15.1912 C.ar    1  UNL1        0.0985
     32 N          62.5211   89.7375   14.0600 N.ar    1  UNL1       -0.2471
     33 C          62.8056   90.2989   12.6984 C.ar    1  UNL1        0.0695
@<TRIPOS>BOND
     1    22    23    1
     2    23    21    1
     3     1    21    1
     4     1     2    1
     5     2     3    1
     6     3     4   ar
     7     4     5   ar
     8     5     6   ar
     9     6     7   ar
    10     7     8   ar
    11     8    12    1
    12    12    13    1
    13    13    14    1
    14    14    15    1
    15    15    16    1
    16    15    17    1
    17    17    18    1
    18     4     9    1
    19     9    10    1
    20    24    23    1
    21    24    25    1
    22    25    26    1
    23    26    27    1
    24    27    28    1
    25    28    29   ar
    26    29    30   ar
    27    30    31   ar
    28    31    32   ar
    29    32    33   ar
    30    10     1    1
    31    33    24    1
    32     8     3   ar
    33    18    12    1
    34    33    28   ar
    35    16    19    1
    36    16    20    1
    37    10    11    1
@<TRIPOS>MOLECULE
*****
 33 37 0 0 0
SMALL
GASTEIGER

@<TRIPOS>ATOM
      1 C          61.5598   89.2313   10.9271 C.3     1  UNL1        0.0749
      2 C          62.3568   89.2465   12.1976 C.3     1  UNL1        0.0444
      3 C          63.4750   90.2314   12.3697 C.ar    1  UNL1       -0.0101
      4 C          63.7960   91.2011   11.2712 C.ar    1  UNL1       -0.0091
      5 C          64.9142   92.1861   11.4434 C.ar    1  UNL1       -0.0032
      6 C          65.7113   92.2014   12.7139 C.ar    1  UNL1        0.0010
      7 C          65.3902   91.2317   13.8124 C.ar    1  UNL1        0.0142
      8 C          64.2721   90.2467   13.6403 C.ar    1  UNL1        0.0436
      9 C          62.9989   91.1859   10.0007 C.3     1  UNL1        0.0954
     10 N          61.8808   90.2009    9.8286 N.3     1  UNL1       -0.2934
     11 H          62.1016   89.6464    9.0015 H       1  UNL1        0.1236
     12 N          63.9511   89.2770   14.7388 N.pl3   1  UNL1       -0.3077
     13 C          63.2568   89.7532   15.9803 C.3     1  UNL1        0.0921
     14 C          62.9357   88.7835   17.0788 C.3     1  UNL1        0.0369
     15 C          63.3090   87.3377   16.9358 C.3     1  UNL1        0.0542
     16 N          62.9880   86.3680   18.0342 N.3     1  UNL1       -0.3221
     17 C          64.0033   86.8616   15.6943 C.3     1  UNL1        0.0369
     18 C          64.3244   87.8313   14.5958 C.3     1  UNL1        0.0921
     19 H          62.5201   86.8595   18.7957 H       1  UNL1        0.1188
     20 H          63.8509   85.9481   18.3801 H       1  UNL1        0.1188
     21 C          60.4416   88.2463   10.7549 C.3     1  UNL1        0.0886
     22 C          59.2828   87.5827    8.5262 C.3     1  UNL1        0.0899
     23 N          60.3822   87.3860    9.5277 N.3     1  UNL1       -0.2667
     24 C          61.4222   86.3289    9.3017 C.3     1  UNL1        0.0978
     25 C          61.8622   85.9957    7.9070 C.3     1  UNL1        0.0224
     26 C          62.9022   84.9386    7.6811 C.3     1  UNL1        0.0065
     27 C          63.5022   84.2148    8.8498 C.3     1  UNL1        0.0277
     28 C          63.0622   84.5480   10.2446 C.ar    1  UNL1       -0.0073
     29 C          63.6621   83.8242   11.4134 C.ar    1  UNL1       -0.0015
     30 C          63.2221   84.1574   12.8081 C.ar    1  UNL1        0.0203
     31 C          62.1821   85.2144   13.0341 C.ar    1  UNL1        0.0985
     32 N          61.5821   85.9383   11.8653 N.ar    1  UNL1       -0.2471
     33 C          62.0222   85.6050   10.4706 C.ar    1  UNL1        0.0695
@<TRIPOS>BOND
     1    22    23    1
     2    23    21    1
     3     1    21    1
     4     1     2    1
     5     2     3    1
     6     3     4   ar
     7     4     5   ar
     8     5     6   ar
     9     6     7   ar
    10     7     8   ar
    11     8    12    1
    12    12    13    1
    13    13    14    1
    14    14    15    1
    15    15    16    1
    16    15    17    1
    17    17    18    1
    18     4     9    1
    19     9    10    1
    20    24    23    1
    21    24    25    1
    22    25    26    1
    23    26    27    1
    24    27    28    1
    25    28    29   ar
    26    29    30   ar
    27    30    31   ar
    28    31    32   ar
    29    32    33   ar
    30    10     1    1
    31    33    24    1
    32     8     3   ar
    33    18    12    1
    34    33    28   ar
    35    16    19    1
    36    16    20    1
    37    10    11    1
@<TRIPOS>MOLECULE
*****
 33 37 0 0 0
SMALL
GASTEIGER

@<TRIPOS>ATOM
      1 C          63.8785   91.6570   10.9202 C.3     1  UNL1        0.0749
      2 C          64.1281   91.2122   12.3308 C.3     1  UNL1        0.0444
      3 C          65.1148   91.9500   13.1864 C.ar    1  UNL1       -0.0101
      4 C          65.8519   93.1326   12.6314 C.ar    1  UNL1       -0.0091
      5 C          66.8386   93.8704   13.4870 C.ar    1  UNL1       -0.0032
      6 C          67.0882   93.4256   14.8976 C.ar    1  UNL1        0.0010
      7 C          66.3511   92.2430   15.4526 C.ar    1  UNL1        0.0142
      8 C          65.3644   91.5052   14.5971 C.ar    1  UNL1        0.0436
      9 C          65.6023   93.5774   11.2208 C.3     1  UNL1        0.0954
     10 N          64.6156   92.8396   10.3652 N.3     1  UNL1       -0.2934
     11 H          65.1251   92.5106    9.5451 H       1  UNL1        0.1236
     12 N          64.6273   90.3226   15.1521 N.pl3   1  UNL1       -0.3077
     13 C          63.6867   90.4996   16.3071 C.3     1  UNL1        0.0921
     14 C          62.9495   89.3170   16.8621 C.3     1  UNL1        0.0369
     15 C          63.1530   87.9573   16.2621 C.3     1  UNL1        0.0542
     16 N          62.4159   86.7747   16.8172 N.3     1  UNL1       -0.3221
     17 C          64.0936   87.7803   15.1072 C.3     1  UNL1        0.0369
     18 C          64.8307   88.9629   14.5521 C.3     1  UNL1        0.0921
     19 H          61.8254   87.0754   17.5925 H       1  UNL1        0.1188
     20 H          63.0863   86.0815   17.1494 H       1  UNL1        0.1188
     21 C          62.8918   90.9192   10.0646 C.3     1  UNL1        0.0886
     22 C          60.7357   90.8336   11.5116 C.3     1  UNL1        0.0899
     23 N          61.7865   90.1317   10.7034 N.3     1  UNL1       -0.2667
     24 C          61.7320   88.6423   10.5341 C.3     1  UNL1        0.0978
     25 C          62.5146   87.7536   11.4548 C.3     1  UNL1        0.0224
     26 C          62.4601   86.2642   11.2855 C.3     1  UNL1        0.0065
     27 C          61.6229   85.6634   10.1954 C.3     1  UNL1        0.0277
     28 C          60.8403   86.5521    9.2746 C.ar    1  UNL1       -0.0073
     29 C          60.0032   85.9513    8.1846 C.ar    1  UNL1       -0.0015
     30 C          59.2206   86.8400    7.2638 C.ar    1  UNL1        0.0203
     31 C          59.2751   88.3294    7.4331 C.ar    1  UNL1        0.0985
     32 N          60.1122   88.9302    8.5232 N.ar    1  UNL1       -0.2471
     33 C          60.8948   88.0415    9.4439 C.ar    1  UNL1        0.0695
@<TRIPOS>BOND
     1    22    23    1
     2    23    21    1
     3     1    21    1
     4     1     2    1
     5     2     3    1
     6     3     4   ar
     7     4     5   ar
     8     5     6   ar
     9     6     7   ar
    10     7     8   ar
    11     8    12    1
    12    12    13    1
    13    13    14    1
    14    14    15    1
    15    15    16    1
    16    15    17    1
    17    17    18    1
    18     4     9    1
    19     9    10    1
    20    24    23    1
    21    24    25    1
    22    25    26    1
    23    26    27    1
    24    27    28    1
    25    28    29   ar
    26    29    30   ar
    27    30    31   ar
    28    31    32   ar
    29    32    33   ar
    30    10     1    1
    31    33    24    1
    32     8     3   ar
    33    18    12    1
    34    33    28   ar
    35    16    19    1
    36    16    20    1
    37    10    11    1
@<TRIPOS>MOLECULE
*****
 33 37 0 0 0
SMALL
GASTEIGER

@<TRIPOS>ATOM
      1 C          63.2877   91.0380   12.1882 C.3     1  UNL1        0.0749
      2 C          64.4296   92.0058   12.0915 C.3     1  UNL1        0.0444
      3 C          65.2855   92.2784   13.2927 C.ar    1  UNL1       -0.0101
      4 C          64.9995   91.5831   14.5907 C.ar    1  UNL1       -0.0091
      5 C          65.8555   91.8557   15.7920 C.ar    1  UNL1       -0.0032
      6 C          66.9974   92.8235   15.6953 C.ar    1  UNL1        0.0010
      7 C          67.2833   93.5188   14.3973 C.ar    1  UNL1        0.0142
      8 C          66.4274   93.2463   13.1960 C.ar    1  UNL1        0.0436
      9 C          63.8577   90.6153   14.6875 C.3     1  UNL1        0.0954
     10 N          63.0018   90.3427   13.4862 N.3     1  UNL1       -0.2934
     11 H          62.0453   90.5844   13.7453 H       1  UNL1        0.1236
     12 N          66.7134   93.9415   11.8980 N.pl3   1  UNL1       -0.3077
     13 C          67.3955   93.2019   10.7854 C.3     1  UNL1        0.0921
     14 C          67.6815   93.8972    9.4874 C.3     1  UNL1        0.0369
     15 C          67.2852   95.3321    9.3020 C.3     1  UNL1        0.0542
     16 N          67.5712   96.0273    8.0040 N.3     1  UNL1       -0.3221
     17 C          66.6031   96.0716   10.4145 C.3     1  UNL1        0.0369
     18 C          66.3172   95.3763   11.7125 C.3     1  UNL1        0.0921
     19 H          68.0351   95.3801    7.3666 H       1  UNL1        0.1188
     20 H          68.1773   96.8298    8.1744 H       1  UNL1        0.1188
     21 C          62.4317   90.7654   10.9869 C.3     1  UNL1        0.0886
     22 C          59.9441   90.3296   11.5968 C.3     1  UNL1        0.0899
     23 N          61.2655   89.8282   11.0941 N.3     1  UNL1       -0.2667
     24 C          61.4205   88.3896   10.6986 C.3     1  UNL1        0.0978
     25 C          62.2771   87.4737   11.5215 C.3     1  UNL1        0.0224
     26 C          62.4321   86.0351   11.1260 C.3     1  UNL1        0.0065
     27 C          61.7305   85.5124    9.9077 C.3     1  UNL1        0.0277
     28 C          60.8739   86.4284    9.0847 C.ar    1  UNL1       -0.0073
     29 C          60.1723   85.9057    7.8663 C.ar    1  UNL1       -0.0015
     30 C          59.3156   86.8216    7.0434 C.ar    1  UNL1        0.0203
     31 C          59.1606   88.2602    7.4389 C.ar    1  UNL1        0.0985
     32 N          59.8622   88.7829    8.6573 N.ar    1  UNL1       -0.2471
     33 C          60.7188   87.8670    9.4802 C.ar    1  UNL1        0.0695
@<TRIPOS>BOND
     1    22    23    1
     2    23    21    1
     3     1    21    1
     4     1     2    1
     5     2     3    1
     6     3     4   ar
     7     4     5   ar
     8     5     6   ar
     9     6     7   ar
    10     7     8   ar
    11     8    12    1
    12    12    13    1
    13    13    14    1
    14    14    15    1
    15    15    16    1
    16    15    17    1
    17    17    18    1
    18     4     9    1
    19     9    10    1
    20    24    23    1
    21    24    25    1
    22    25    26    1
    23    26    27    1
    24    27    28    1
    25    28    29   ar
    26    29    30   ar
    27    30    31   ar
    28    31    32   ar
    29    32    33   ar
    30    10     1    1
    31    33    24    1
    32     8     3   ar
    33    18    12    1
    34    33    28   ar
    35    16    19    1
    36    16    20    1
    37    10    11    1
@<TRIPOS>MOLECULE
*****
 33 37 0 0 0
SMALL
GASTEIGER

@<TRIPOS>ATOM
      1 C          61.4241   89.5280   11.7285 C.3     1  UNL1        0.0749
      2 C          61.6753   88.1506   11.1904 C.3     1  UNL1        0.0444
      3 C          61.0431   87.7231    9.8991 C.ar    1  UNL1       -0.0101
      4 C          60.1597   88.6730    9.1459 C.ar    1  UNL1       -0.0091
      5 C          59.5275   88.2455    7.8545 C.ar    1  UNL1       -0.0032
      6 C          59.7787   86.8681    7.3164 C.ar    1  UNL1        0.0010
      7 C          60.6621   85.9181    8.0696 C.ar    1  UNL1        0.0142
      8 C          61.2943   86.3456    9.3609 C.ar    1  UNL1        0.0436
      9 C          59.9085   90.0504    9.6840 C.3     1  UNL1        0.0954
     10 N          60.5407   90.4779   10.9753 N.3     1  UNL1       -0.2934
     11 H          59.7802   90.7347   11.6047 H       1  UNL1        0.1236
     12 N          62.1776   85.3957   10.1141 N.pl3   1  UNL1       -0.3077
     13 C          62.0572   85.2816   11.6050 C.3     1  UNL1        0.0921
     14 C          62.9406   84.3317   12.3582 C.3     1  UNL1        0.0369
     15 C          63.9444   83.4959   11.6205 C.3     1  UNL1        0.0542
     16 N          64.8278   82.5460   12.3737 N.3     1  UNL1       -0.3221
     17 C          64.0647   83.6101   10.1298 C.3     1  UNL1        0.0369
     18 C          63.1814   84.5600    9.3766 C.3     1  UNL1        0.0921
     19 H          64.6119   82.5978   13.3693 H       1  UNL1        0.1188
     20 H          65.8045   82.7987   12.2240 H       1  UNL1        0.1188
     21 C          62.0563   89.9556   13.0199 C.3     1  UNL1        0.0886
     22 C          64.2421   88.8009   13.8196 C.3     1  UNL1        0.0899
     23 N          63.5497   89.9565   13.1596 N.3     1  UNL1       -0.2667
     24 C          64.3510   91.1130   12.6395 C.3     1  UNL1        0.0978
     25 C          64.2503   91.5060   11.1954 C.3     1  UNL1        0.0224
     26 C          65.0515   92.6625   10.6753 C.3     1  UNL1        0.0065
     27 C          65.9534   93.4260   11.5992 C.3     1  UNL1        0.0277
     28 C          66.0541   93.0330   13.0434 C.ar    1  UNL1       -0.0073
     29 C          66.9559   93.7965   13.9673 C.ar    1  UNL1       -0.0015
     30 C          67.0566   93.4035   15.4114 C.ar    1  UNL1        0.0203
     31 C          66.2554   92.2470   15.9315 C.ar    1  UNL1        0.0985
     32 N          65.3535   91.4835   15.0076 N.ar    1  UNL1       -0.2471
     33 C          65.2529   91.8765   13.5635 C.ar    1  UNL1        0.0695
@<TRIPOS>BOND
     1    22    23    1
     2    23    21    1
     3     1    21    1
     4     1     2    1
     5     2     3    1
     6     3     4   ar
     7     4     5   ar
     8     5     6   ar
     9     6     7   ar
    10     7     8   ar
    11     8    12    1
    12    12    13    1
    13    13    14    1
    14    14    15    1
    15    15    16    1
    16    15    17    1
    17    17    18    1
    18     4     9    1
    19     9    10    1
    20    24    23    1
    21    24    25    1
    22    25    26    1
    23    26    27    1
    24    27    28    1
    25    28    29   ar
    26    29    30   ar
    27    30    31   ar
    28    31    32   ar
    29    32    33   ar
    30    10     1    1
    31    33    24    1
    32     8     3   ar
    33    18    12    1
    34    33    28   ar
    35    16    19    1
    36    16    20    1
    37    10    11    1
@<TRIPOS>MOLECULE
*****
 33 37 0 0 0
SMALL
GASTEIGER

@<TRIPOS>ATOM
      1 C          62.3900   90.7082   10.9365 C.3     1  UNL1        0.0749
      2 C          63.0377   90.3597   12.2437 C.3     1  UNL1        0.0444
      3 C          64.3509   90.9799   12.6189 C.ar    1  UNL1       -0.0101
      4 C          65.0164   91.9486   11.6868 C.ar    1  UNL1       -0.0091
      5 C          66.3297   92.5688   12.0620 C.ar    1  UNL1       -0.0032
      6 C          66.9774   92.2203   13.3693 C.ar    1  UNL1        0.0010
      7 C          66.3119   91.2517   14.3014 C.ar    1  UNL1        0.0142
      8 C          64.9987   90.6315   13.9262 C.ar    1  UNL1        0.0436
      9 C          64.3687   92.2971   10.3795 C.3     1  UNL1        0.0954
     10 N          63.0555   91.6768   10.0043 N.3     1  UNL1       -0.2934
     11 H          63.2036   91.1838    9.1238 H       1  UNL1        0.1236
     12 N          64.3332   89.6628   14.8583 N.pl3   1  UNL1       -0.3077
     13 C          63.4943   90.1702   15.9936 C.3     1  UNL1        0.0921
     14 C          62.8289   89.2016   16.9257 C.3     1  UNL1        0.0369
     15 C          63.0023   87.7255   16.7225 C.3     1  UNL1        0.0542
     16 N          62.3368   86.7568   17.6546 N.3     1  UNL1       -0.3221
     17 C          63.8411   87.2182   15.5873 C.3     1  UNL1        0.0369
     18 C          64.5066   88.1868   14.6552 C.3     1  UNL1        0.0921
     19 H          61.8112   87.2714   18.3613 H       1  UNL1        0.1188
     20 H          63.0454   86.1815   18.1098 H       1  UNL1        0.1188
     21 C          61.0767   90.0880   10.5612 C.3     1  UNL1        0.0886
     22 C          60.0250   88.4316   12.2643 C.3     1  UNL1        0.0899
     23 N          60.7631   88.6831   10.9828 N.3     1  UNL1       -0.2667
     24 C          61.1876   87.5295   10.1231 C.3     1  UNL1        0.0978
     25 C          60.7975   87.4898    8.6753 C.3     1  UNL1        0.0224
     26 C          61.2220   86.3363    7.8155 C.3     1  UNL1        0.0065
     27 C          62.0365   85.2225    8.4035 C.3     1  UNL1        0.0277
     28 C          62.4267   85.2621    9.8514 C.ar    1  UNL1       -0.0073
     29 C          63.2412   84.1483   10.4395 C.ar    1  UNL1       -0.0015
     30 C          63.6313   84.1880   11.8873 C.ar    1  UNL1        0.0203
     31 C          63.2068   85.3415   12.7471 C.ar    1  UNL1        0.0985
     32 N          62.3923   86.4554   12.1590 N.ar    1  UNL1       -0.2471
     33 C          62.0022   86.4157   10.7112 C.ar    1  UNL1        0.0695
@<TRIPOS>BOND
     1    22    23    1
     2    23    21    1
     3     1    21    1
     4     1     2    1
     5     2     3    1
     6     3     4   ar
     7     4     5   ar
     8     5     6   ar
     9     6     7   ar
    10     7     8   ar
    11     8    12    1
    12    12    13    1
    13    13    14    1
    14    14    15    1
    15    15    16    1
    16    15    17    1
    17    17    18    1
    18     4     9    1
    19     9    10    1
    20    24    23    1
    21    24    25    1
    22    25    26    1
    23    26    27    1
    24    27    28    1
    25    28    29   ar
    26    29    30   ar
    27    30    31   ar
    28    31    32   ar
    29    32    33   ar
    30    10     1    1
    31    33    24    1
    32     8     3   ar
    33    18    12    1
    34    33    28   ar
    35    16    19    1
    36    16    20    1
    37    10    11    1
@<TRIPOS>MOLECULE
*****
 33 37 0 0 0
SMALL
GASTEIGER

@<TRIPOS>ATOM
      1 C          64.4196   86.6719   14.5365 C.3     1  UNL1        0.0749
      2 C          63.5979   86.3635   13.3201 C.3     1  UNL1        0.0444
      3 C          63.3495   84.9381   12.9245 C.ar    1  UNL1       -0.0101
      4 C          63.9228   83.8211   13.7453 C.ar    1  UNL1       -0.0091
      5 C          63.6744   82.3957   13.3496 C.ar    1  UNL1       -0.0032
      6 C          62.8527   82.0873   12.1332 C.ar    1  UNL1        0.0010
      7 C          62.2794   83.2043   11.3124 C.ar    1  UNL1        0.0142
      8 C          62.5278   84.6297   11.7080 C.ar    1  UNL1        0.0436
      9 C          64.7445   84.1295   14.9617 C.3     1  UNL1        0.0954
     10 N          64.9929   85.5549   15.3573 N.3     1  UNL1       -0.2934
     11 H          66.0044   85.6858   15.3670 H       1  UNL1        0.1236
     12 N          61.9546   85.7467   10.8872 N.pl3   1  UNL1       -0.3077
     13 C          60.9475   86.6804   11.4906 C.3     1  UNL1        0.0921
     14 C          60.3743   87.7974   10.6698 C.3     1  UNL1        0.0369
     15 C          60.8081   87.9806    9.2456 C.3     1  UNL1        0.0542
     16 N          60.2348   89.0976    8.4248 N.3     1  UNL1       -0.3221
     17 C          61.8151   87.0469    8.6422 C.3     1  UNL1        0.0369
     18 C          62.3883   85.9299    9.4630 C.3     1  UNL1        0.0921
     19 H          59.5716   89.6286    8.9892 H       1  UNL1        0.1188
     20 H          59.7559   88.7108    7.6115 H       1  UNL1        0.1188
     21 C          64.6680   88.0973   14.9322 C.3     1  UNL1        0.0886
     22 C          62.4919   89.3739   15.5527 C.3     1  UNL1        0.0899
     23 N          63.6466   89.1509   14.6214 N.3     1  UNL1       -0.2667
     24 C          63.7797   89.9814   13.3795 C.3     1  UNL1        0.0978
     25 C          63.0093   89.6147   12.1458 C.3     1  UNL1        0.0224
     26 C          63.1425   90.4453   10.9039 C.3     1  UNL1        0.0065
     27 C          64.0459   91.6426   10.8956 C.3     1  UNL1        0.0277
     28 C          64.8163   92.0094   12.1294 C.ar    1  UNL1       -0.0073
     29 C          65.7197   93.2068   12.1211 C.ar    1  UNL1       -0.0015
     30 C          66.4901   93.5735   13.3548 C.ar    1  UNL1        0.0203
     31 C          66.3570   92.7429   14.5968 C.ar    1  UNL1        0.0985
     32 N          65.4535   91.5456   14.6050 N.ar    1  UNL1       -0.2471
     33 C          64.6832   91.1788   13.3713 C.ar    1  UNL1        0.0695
@<TRIPOS>BOND
     1    22    23    1
     2    23    21    1
     3     1    21    1
     4     1     2    1
     5     2     3    1
     6     3     4   ar
     7     4     5   ar
     8     5     6   ar
     9     6     7   ar
    10     7     8   ar
    11     8    12    1
    12    12    13    1
    13    13    14    1
    14    14    15    1
    15    15    16    1
    16    15    17    1
    17    17    18    1
    18     4     9    1
    19     9    10    1
    20    24    23    1
    21    24    25    1
    22    25    26    1
    23    26    27    1
    24    27    28    1
    25    28    29   ar
    26    29    30   ar
    27    30    31   ar
    28    31    32   ar
    29    32    33   ar
    30    10     1    1
    31    33    24    1
    32     8     3   ar
    33    18    12    1
    34    33    28   ar
    35    16    19    1
    36    16    20    1
    37    10    11    1
@<TRIPOS>MOLECULE
*****
 33 37 0 0 0
SMALL
GASTEIGER

@<TRIPOS>ATOM
      1 C          62.0538   87.4290   10.5195 C.3     1  UNL1        0.0749
      2 C          62.4676   86.5514   11.6634 C.3     1  UNL1        0.0444
      3 C          63.0355   85.1890   11.3962 C.ar    1  UNL1       -0.0101
      4 C          63.1896   84.7043    9.9851 C.ar    1  UNL1       -0.0091
      5 C          63.7576   83.3418    9.7179 C.ar    1  UNL1       -0.0032
      6 C          64.1713   82.4642   10.8618 C.ar    1  UNL1        0.0010
      7 C          64.0172   82.9490   12.2730 C.ar    1  UNL1        0.0142
      8 C          63.4493   84.3113   12.5402 C.ar    1  UNL1        0.0436
      9 C          62.7759   85.5819    8.8412 C.3     1  UNL1        0.0954
     10 N          62.2080   86.9442    9.1084 N.3     1  UNL1       -0.2934
     11 H          61.2792   86.9639    8.6872 H       1  UNL1        0.1236
     12 N          63.2951   84.7961   13.9513 N.pl3   1  UNL1       -0.3077
     13 C          62.2444   84.1979   14.8392 C.3     1  UNL1        0.0921
     14 C          62.0903   84.6826   16.2504 C.3     1  UNL1        0.0369
     15 C          62.9868   85.7656   16.7735 C.3     1  UNL1        0.0542
     16 N          62.8326   86.2503   18.1846 N.3     1  UNL1       -0.3221
     17 C          64.0374   86.3637   15.8856 C.3     1  UNL1        0.0369
     18 C          64.1915   85.8789   14.4745 C.3     1  UNL1        0.0921
     19 H          62.0770   85.7380   18.6395 H       1  UNL1        0.1188
     20 H          62.6133   87.2464   18.1799 H       1  UNL1        0.1188
     21 C          61.4859   88.7914   10.7867 C.3     1  UNL1        0.0886
     22 C          62.4868   90.8846    9.6177 C.3     1  UNL1        0.0899
     23 N          62.3897   89.9881   10.8164 N.3     1  UNL1       -0.2667
     24 C          63.1965   90.2883   12.0448 C.3     1  UNL1        0.0978
     25 C          62.9457   89.5255   13.3118 C.3     1  UNL1        0.0224
     26 C          63.7525   89.8258   14.5402 C.3     1  UNL1        0.0065
     27 C          64.8100   90.8888   14.5017 C.3     1  UNL1        0.0277
     28 C          65.0608   91.6517   13.2346 C.ar    1  UNL1       -0.0073
     29 C          66.1184   92.7147   13.1961 C.ar    1  UNL1       -0.0015
     30 C          66.3692   93.4775   11.9292 C.ar    1  UNL1        0.0203
     31 C          65.5624   93.1772   10.7007 C.ar    1  UNL1        0.0985
     32 N          64.5049   92.1142   10.7393 N.ar    1  UNL1       -0.2471
     33 C          64.2541   91.3514   12.0062 C.ar    1  UNL1        0.0695
@<TRIPOS>BOND
     1    22    23    1
     2    23    21    1
     3     1    21    1
     4     1     2    1
     5     2     3    1
     6     3     4   ar
     7     4     5   ar
     8     5     6   ar
     9     6     7   ar
    10     7     8   ar
    11     8    12    1
    12    12    13    1
    13    13    14    1
    14    14    15    1
    15    15    16    1
    16    15    17    1
    17    17    18    1
    18     4     9    1
    19     9    10    1
    20    24    23    1
    21    24    25    1
    22    25    26    1
    23    26    27    1
    24    27    28    1
    25    28    29   ar
    26    29    30   ar
    27    30    31   ar
    28    31    32   ar
    29    32    33   ar
    30    10     1    1
    31    33    24    1
    32     8     3   ar
    33    18    12    1
    34    33    28   ar
    35    16    19    1
    36    16    20    1
    37    10    11    1
