@<TRIPOS>MOLECULE
*****
 37 40 0 0 0
SMALL
GASTEIGER

@<TRIPOS>ATOM
      1 C          62.2094   79.2752   14.3685 C.3     1  UNL1        0.0334
      2 C          62.4099   80.5009   13.5274 C.ar    1  UNL1        0.0071
      3 C          62.5111   81.8486   14.1779 C.ar    1  UNL1        0.0156
      4 C          62.7116   83.0743   13.3368 C.ar    1  UNL1        0.0673
      5 C          62.8108   82.9522   11.8451 C.ar    1  UNL1        0.0295
      6 C          62.7096   81.6045   11.1945 C.ar    1  UNL1        0.0315
      7 C          62.5091   80.3788   12.0357 C.ar    1  UNL1        0.1363
      8 F          62.4079   79.0310   11.3850 F       1  UNL1       -0.2045
      9 C          63.0071   84.3276   11.2795 C.ar    1  UNL1        0.0875
     10 C          63.0292   85.2997   12.4217 C.ar    1  UNL1        0.0939
     11 N          62.8466   84.5252   13.6932 N.ar    1  UNL1       -0.2745
     12 C          62.8060   85.1004   15.0779 C.ar    1  UNL1        0.2371
     13 N          64.0843   85.4051   15.8012 N.ar    1  UNL1       -0.2072
     14 C          64.0439   85.9803   17.1859 C.ar    1  UNL1        0.1332
     15 C          62.7251   86.2508   17.8474 C.ar    1  UNL1        0.1784
     16 F          62.6845   86.8260   19.2321 F       1  UNL1       -0.2009
     17 C          61.4468   85.9460   17.1241 C.ar    1  UNL1        0.1332
     18 N          61.4872   85.3708   15.7394 N.ar    1  UNL1       -0.2072
     19 C          63.2034   86.7855   12.3117 C.ar    1  UNL1        0.0982
     20 C          62.6836   87.5145   11.1082 C.ar    1  UNL1        0.0220
     21 C          62.8578   89.0003   10.9982 C.ar    1  UNL1        0.0231
     22 C          63.5519   89.7570   12.0917 C.ar    1  UNL1        0.1410
     23 C          64.0717   89.0280   13.2951 C.ar    1  UNL1        0.1187
     24 N          63.8975   87.5423   13.4051 N.ar    1  UNL1       -0.2409
     25 S          63.7261   91.2429   11.9816 S.O2    1  UNL1        0.0619
     26 O          63.6996   91.3567   13.4771 O.2     1  UNL1       -0.1529
     27 O          63.7525   91.1290   10.4862 O.2     1  UNL1       -0.1529
     28 N          63.9002   92.7286   11.8716 N.3     1  UNL1       -0.1723
     29 H          63.5826   93.1285   12.7545 H       1  UNL1        0.1491
     30 C          65.2571   93.3064   11.5978 C.3     1  UNL1        0.1701
     31 C          65.3996   94.4837   10.6793 C.3     1  UNL1        0.0278
     32 C          66.4716   92.7070   12.2425 C.3     1  UNL1        0.4118
     33 F          67.6861   92.1075   12.8872 F       1  UNL1       -0.1685
     34 F          66.8410   92.0569   10.9421 F       1  UNL1       -0.1685
     35 F          66.1021   93.3570   13.5428 F       1  UNL1       -0.1685
     36 C          63.1553   84.6706    9.8268 C.1     1  UNL1        0.1020
     37 N          63.3035   85.0137    8.3741 N.1     1  UNL1       -0.1908
@<TRIPOS>BOND
     1     1     2    1
     2     2     3   ar
     3     3     4   ar
     4     4     5   ar
     5     5     6   ar
     6     6     7   ar
     7     7     8    1
     8     5     9   ar
     9     9    36    1
    10    36    37    3
    11     9    10   ar
    12    10    19    1
    13    19    20   ar
    14    20    21   ar
    15    21    22   ar
    16    22    25    1
    17    25    26    2
    18    25    27    2
    19    25    28    1
    20    28    30    1
    21    30    31    1
    22    30    32    1
    23    32    33    1
    24    32    34    1
    25    32    35    1
    26    22    23   ar
    27    23    24   ar
    28    10    11   ar
    29    11    12    1
    30    12    13   ar
    31    13    14   ar
    32    14    15   ar
    33    15    16    1
    34    15    17   ar
    35    17    18   ar
    36     7     2   ar
    37    24    19   ar
    38    18    12   ar
    39    11     4   ar
    40    28    29    1
@<TRIPOS>MOLECULE
*****
 37 40 0 0 0
SMALL
GASTEIGER

@<TRIPOS>ATOM
      1 C          58.1079   91.6235    4.8375 C.3     1  UNL1        0.0334
      2 C          59.2629   91.9467    3.9367 C.ar    1  UNL1        0.0071
      3 C          59.0176   92.5893    2.6038 C.ar    1  UNL1        0.0156
      4 C          60.1727   92.9125    1.7030 C.ar    1  UNL1        0.0673
      5 C          61.5730   92.5929    2.1351 C.ar    1  UNL1        0.0295
      6 C          61.8184   91.9502    3.4680 C.ar    1  UNL1        0.0315
      7 C          60.6633   91.6271    4.3688 C.ar    1  UNL1        0.1363
      8 F          60.9087   90.9844    5.7018 F       1  UNL1       -0.2045
      9 C          62.5053   93.0245    1.0421 C.ar    1  UNL1        0.0875
     10 C          61.6810   93.6108   -0.0656 C.ar    1  UNL1        0.0939
     11 N          60.2394   93.5416    0.3428 N.ar    1  UNL1       -0.2745
     12 C          59.0698   94.0178   -0.4667 C.ar    1  UNL1        0.2371
     13 N          58.6768   95.4651   -0.4371 N.ar    1  UNL1       -0.2072
     14 C          57.5072   95.9414   -1.2465 C.ar    1  UNL1        0.1332
     15 C          56.7307   94.9703   -2.0856 C.ar    1  UNL1        0.1784
     16 F          55.5611   95.4466   -2.8951 F       1  UNL1       -0.2009
     17 C          57.1237   93.5231   -2.1151 C.ar    1  UNL1        0.1332
     18 N          58.2932   93.0467   -1.3057 N.ar    1  UNL1       -0.2072
     19 C          62.2063   94.1684   -1.3553 C.ar    1  UNL1        0.0982
     20 C          62.6732   93.2415   -2.4382 C.ar    1  UNL1        0.0220
     21 C          63.1985   93.7991   -3.7278 C.ar    1  UNL1        0.0231
     22 C          63.2567   95.2837   -3.9345 C.ar    1  UNL1        0.1410
     23 C          62.7898   96.2106   -2.8516 C.ar    1  UNL1        0.1187
     24 N          62.2645   95.6530   -1.5620 N.ar    1  UNL1       -0.2409
     25 S          63.7820   95.8413   -5.2242 S.O2    1  UNL1        0.0619
     26 O          65.1103   96.0932   -4.5743 O.2     1  UNL1       -0.1529
     27 O          62.4537   95.5895   -5.8740 O.2     1  UNL1       -0.1529
     28 N          64.3072   96.3989   -6.5138 N.3     1  UNL1       -0.1723
     29 H          64.4222   97.4029   -6.3754 H       1  UNL1        0.1491
     30 C          65.5991   95.8891   -7.0805 C.3     1  UNL1        0.1701
     31 C          66.6406   96.8557   -7.5609 C.3     1  UNL1        0.0278
     32 C          65.8495   94.4127   -7.1667 C.3     1  UNL1        0.4118
     33 F          66.0999   92.9362   -7.2529 F       1  UNL1       -0.1685
     34 F          64.4186   94.1930   -7.5598 F       1  UNL1       -0.1685
     35 F          67.2803   94.6324   -6.7735 F       1  UNL1       -0.1685
     36 C          63.9994   92.8928    1.0545 C.1     1  UNL1        0.1020
     37 N          65.4936   92.7612    1.0671 N.1     1  UNL1       -0.1908
@<TRIPOS>BOND
     1     1     2    1
     2     2     3   ar
     3     3     4   ar
     4     4     5   ar
     5     5     6   ar
     6     6     7   ar
     7     7     8    1
     8     5     9   ar
     9     9    36    1
    10    36    37    3
    11     9    10   ar
    12    10    19    1
    13    19    20   ar
    14    20    21   ar
    15    21    22   ar
    16    22    25    1
    17    25    26    2
    18    25    27    2
    19    25    28    1
    20    28    30    1
    21    30    31    1
    22    30    32    1
    23    32    33    1
    24    32    34    1
    25    32    35    1
    26    22    23   ar
    27    23    24   ar
    28    10    11   ar
    29    11    12    1
    30    12    13   ar
    31    13    14   ar
    32    14    15   ar
    33    15    16    1
    34    15    17   ar
    35    17    18   ar
    36     7     2   ar
    37    24    19   ar
    38    18    12   ar
    39    11     4   ar
    40    28    29    1
@<TRIPOS>MOLECULE
*****
 37 40 0 0 0
SMALL
GASTEIGER

@<TRIPOS>ATOM
      1 C          62.0533   79.1768   12.0608 C.3     1  UNL1        0.0334
      2 C          62.4188   80.4887   12.6894 C.ar    1  UNL1        0.0071
      3 C          62.3824   81.7471   11.8739 C.ar    1  UNL1        0.0156
      4 C          62.7480   83.0591   12.5026 C.ar    1  UNL1        0.0673
      5 C          63.1499   83.1126   13.9467 C.ar    1  UNL1        0.0295
      6 C          63.1863   81.8542   14.7622 C.ar    1  UNL1        0.0315
      7 C          62.8207   80.5423   14.1335 C.ar    1  UNL1        0.1363
      8 F          62.8571   79.2838   14.9491 F       1  UNL1       -0.2045
      9 C          63.4549   84.5405   14.2903 C.ar    1  UNL1        0.0875
     10 C          63.2414   85.3695   13.0586 C.ar    1  UNL1        0.0939
     11 N          62.8045   84.4539   11.9536 N.ar    1  UNL1       -0.2745
     12 C          62.4810   84.8616   10.5468 C.ar    1  UNL1        0.2371
     13 N          61.2416   85.6573   10.2628 N.ar    1  UNL1       -0.2072
     14 C          60.9180   86.0650    8.8560 C.ar    1  UNL1        0.1332
     15 C          61.8338   85.6769    7.7333 C.ar    1  UNL1        0.1784
     16 F          61.5103   86.0845    6.3265 F       1  UNL1       -0.2009
     17 C          63.0732   84.8812    8.0173 C.ar    1  UNL1        0.1332
     18 N          63.3968   84.4735    9.4241 N.ar    1  UNL1       -0.2072
     19 C          63.4315   86.8535   12.9507 C.ar    1  UNL1        0.0982
     20 C          64.2359   87.5837   13.9849 C.ar    1  UNL1        0.0220
     21 C          64.4259   89.0677   13.8770 C.ar    1  UNL1        0.0231
     22 C          63.8115   89.8215   12.7349 C.ar    1  UNL1        0.1410
     23 C          63.0071   89.0912   11.7007 C.ar    1  UNL1        0.1187
     24 N          62.8170   87.6073   11.8086 N.ar    1  UNL1       -0.2409
     25 S          64.0016   91.3055   12.6271 S.O2    1  UNL1        0.0619
     26 O          64.0424   91.1916   11.1319 O.2     1  UNL1       -0.1529
     27 O          63.9607   91.4193   14.1221 O.2     1  UNL1       -0.1529
     28 N          64.1916   92.7895   12.5193 N.3     1  UNL1       -0.1723
     29 H          63.9176   93.1874   13.4175 H       1  UNL1        0.1491
     30 C          65.5435   93.3506   12.1914 C.3     1  UNL1        0.1701
     31 C          65.7207   94.2236   10.9846 C.3     1  UNL1        0.0278
     32 C          66.7183   93.0388   13.0704 C.3     1  UNL1        0.4118
     33 F          67.8931   92.7269   13.9494 F       1  UNL1       -0.1685
     34 F          67.2861   92.1564   11.9984 F       1  UNL1       -0.1685
     35 F          66.1505   93.9211   14.1423 F       1  UNL1       -0.1685
     36 C          63.8958   85.0499   15.6305 C.1     1  UNL1        0.1020
     37 N          64.3368   85.5594   16.9707 N.1     1  UNL1       -0.1908
@<TRIPOS>BOND
     1     1     2    1
     2     2     3   ar
     3     3     4   ar
     4     4     5   ar
     5     5     6   ar
     6     6     7   ar
     7     7     8    1
     8     5     9   ar
     9     9    36    1
    10    36    37    3
    11     9    10   ar
    12    10    19    1
    13    19    20   ar
    14    20    21   ar
    15    21    22   ar
    16    22    25    1
    17    25    26    2
    18    25    27    2
    19    25    28    1
    20    28    30    1
    21    30    31    1
    22    30    32    1
    23    32    33    1
    24    32    34    1
    25    32    35    1
    26    22    23   ar
    27    23    24   ar
    28    10    11   ar
    29    11    12    1
    30    12    13   ar
    31    13    14   ar
    32    14    15   ar
    33    15    16    1
    34    15    17   ar
    35    17    18   ar
    36     7     2   ar
    37    24    19   ar
    38    18    12   ar
    39    11     4   ar
    40    28    29    1
@<TRIPOS>MOLECULE
*****
 37 40 0 0 0
SMALL
GASTEIGER

@<TRIPOS>ATOM
      1 C          70.4920   94.0224   15.6693 C.3     1  UNL1        0.0334
      2 C          69.2454   93.2206   15.4390 C.ar    1  UNL1        0.0071
      3 C          68.4726   93.3852   14.1640 C.ar    1  UNL1        0.0156
      4 C          67.2260   92.5834   13.9337 C.ar    1  UNL1        0.0673
      5 C          66.7521   91.6170   14.9784 C.ar    1  UNL1        0.0295
      6 C          67.5249   91.4523   16.2534 C.ar    1  UNL1        0.0315
      7 C          68.7715   92.2541   16.4837 C.ar    1  UNL1        0.1363
      8 F          69.5443   92.0895   17.7588 F       1  UNL1       -0.2045
      9 C          65.4969   90.9685   14.4746 C.ar    1  UNL1        0.0875
     10 C          65.1950   91.5341   13.1185 C.ar    1  UNL1        0.0939
     11 N          66.2636   92.5322   12.7842 N.ar    1  UNL1       -0.2745
     12 C          66.3540   93.3377   11.5220 C.ar    1  UNL1        0.2371
     13 N          67.1684   92.8338   10.3675 N.ar    1  UNL1       -0.2072
     14 C          67.2589   93.6392    9.1054 C.ar    1  UNL1        0.1332
     15 C          66.5349   94.9485    8.9977 C.ar    1  UNL1        0.1784
     16 F          66.6253   95.7540    7.7356 F       1  UNL1       -0.2009
     17 C          65.7205   95.4524   10.1522 C.ar    1  UNL1        0.1332
     18 N          65.6300   94.6470   11.4144 N.ar    1  UNL1       -0.2072
     19 C          64.0290   91.1662   12.2494 C.ar    1  UNL1        0.0982
     20 C          64.0073   91.5816   10.8082 C.ar    1  UNL1        0.0220
     21 C          62.8414   91.2137    9.9392 C.ar    1  UNL1        0.0231
     22 C          61.6972   90.4304   10.5113 C.ar    1  UNL1        0.1410
     23 C          61.7190   90.0150   11.9524 C.ar    1  UNL1        0.1187
     24 N          62.8848   90.3829   12.8215 N.ar    1  UNL1       -0.2409
     25 S          60.5313   90.0625    9.6422 S.O2    1  UNL1        0.0619
     26 O          61.4541   89.3281    8.7151 O.2     1  UNL1       -0.1529
     27 O          59.6086   90.7968   10.5692 O.2     1  UNL1       -0.1529
     28 N          59.3654   89.6946    8.7731 N.3     1  UNL1       -0.1723
     29 H          59.1175   90.5305    8.2437 H       1  UNL1        0.1491
     30 C          59.4923   88.5760    7.7819 C.3     1  UNL1        0.1701
     31 C          59.3714   88.8577    6.3136 C.3     1  UNL1        0.0278
     32 C          59.7400   87.1757    8.2590 C.3     1  UNL1        0.4118
     33 F          59.9878   85.7752    8.7360 F       1  UNL1       -0.1685
     34 F          60.4957   86.8796    6.9974 F       1  UNL1       -0.1685
     35 F          58.9844   87.4717    9.5204 F       1  UNL1       -0.1685
     36 C          64.6860   89.9357   15.1996 C.1     1  UNL1        0.1020
     37 N          63.8750   88.9028   15.9246 N.1     1  UNL1       -0.1908
@<TRIPOS>BOND
     1     1     2    1
     2     2     3   ar
     3     3     4   ar
     4     4     5   ar
     5     5     6   ar
     6     6     7   ar
     7     7     8    1
     8     5     9   ar
     9     9    36    1
    10    36    37    3
    11     9    10   ar
    12    10    19    1
    13    19    20   ar
    14    20    21   ar
    15    21    22   ar
    16    22    25    1
    17    25    26    2
    18    25    27    2
    19    25    28    1
    20    28    30    1
    21    30    31    1
    22    30    32    1
    23    32    33    1
    24    32    34    1
    25    32    35    1
    26    22    23   ar
    27    23    24   ar
    28    10    11   ar
    29    11    12    1
    30    12    13   ar
    31    13    14   ar
    32    14    15   ar
    33    15    16    1
    34    15    17   ar
    35    17    18   ar
    36     7     2   ar
    37    24    19   ar
    38    18    12   ar
    39    11     4   ar
    40    28    29    1
