@<TRIPOS>MOLECULE
*****
 29 32 0 0 0
SMALL
GASTEIGER

@<TRIPOS>ATOM
      1 C          58.9861   88.3161    7.2450 C.3     1  UNL1        0.0518
      2 C          59.9590   88.3258    8.3867 C.ar    1  UNL1        0.0563
      3 N          60.3158   89.6194    9.0570 N.ar    1  UNL1       -0.2524
      4 C          61.2887   89.6292   10.1986 C.ar    1  UNL1        0.0830
      5 C          61.9048   88.3454   10.6700 C.ar    1  UNL1        0.0686
      6 C          61.5480   87.0518    9.9997 C.ar    1  UNL1        0.0048
      7 C          60.5751   87.0421    8.8581 C.ar    1  UNL1        0.0072
      8 C          62.8253   88.6643   11.8106 C.2     1  UNL1        0.2506
      9 O          63.6485   87.6758   12.5822 O.2     1  UNL1       -0.2699
     10 N          62.7781   90.1452   12.0442 N.am    1  UNL1       -0.2679
     11 C          61.8284   90.7416   11.0479 C.3     1  UNL1        0.1398
     12 C          62.1641   85.7679   10.4711 C.ar    1  UNL1        0.0106
     13 C          61.8293   85.2302   11.8307 C.ar    1  UNL1        0.0017
     14 C          62.4453   83.9463   12.3021 C.ar    1  UNL1        0.0114
     15 C          63.3962   83.2002   11.4138 C.ar    1  UNL1        0.0585
     16 CL         64.0122   81.9163   11.8852 Cl      1  UNL1       -0.0822
     17 C          63.7310   83.7379   10.0541 C.ar    1  UNL1        0.0228
     18 C          63.1150   85.0218    9.5827 C.ar    1  UNL1        0.0585
     19 CL         63.4498   85.5595    8.2230 Cl      1  UNL1       -0.0822
     20 C          60.2183   85.7484    8.1877 C.3     1  UNL1        0.0934
     21 N          60.7238   85.4551    6.8063 N.3     1  UNL1       -0.3174
     22 H          60.3068   86.1105    6.1453 H       1  UNL1        0.1192
     23 H          60.4696   84.5021    6.5464 H       1  UNL1        0.1192
     24 C          63.5458   90.8977   13.0903 C.3     1  UNL1        0.1235
     25 C          64.6098   91.8734   12.6830 C.3     1  UNL1        0.1351
     26 C          65.0069   92.2084   11.2759 C.3     1  UNL1        0.0339
     27 C          66.1061   93.2273   11.3346 C.3     1  UNL1        0.0346
     28 C          66.3883   93.5222   12.7779 C.3     1  UNL1        0.1422
     29 O          65.4635   92.6854   13.6114 O.3     1  UNL1       -0.3545
@<TRIPOS>BOND
     1     1     2    1
     2     2     3   ar
     3     3     4   ar
     4     4     5   ar
     5     5     6   ar
     6     6    12    1
     7    12    13   ar
     8    13    14   ar
     9    14    15   ar
    10    15    16    1
    11    15    17   ar
    12    17    18   ar
    13    18    19    1
    14     6     7   ar
    15     7    20    1
    16    20    21    1
    17     5     8    1
    18     8     9    2
    19     8    10   am
    20    10    24    1
    21    25    24    1
    22    25    26    1
    23    26    27    1
    24    27    28    1
    25    28    29    1
    26    10    11    1
    27     7     2   ar
    28    29    25    1
    29    11     4    1
    30    18    12   ar
    31    21    22    1
    32    21    23    1
@<TRIPOS>MOLECULE
*****
 29 32 0 0 0
SMALL
GASTEIGER

@<TRIPOS>ATOM
      1 C          58.9667   88.3409    7.1739 C.3     1  UNL1        0.0518
      2 C          59.9473   88.3638    8.3089 C.ar    1  UNL1        0.0563
      3 N          60.3230   89.6672    8.9492 N.ar    1  UNL1       -0.2524
      4 C          61.3035   89.6901   10.0842 C.ar    1  UNL1        0.0830
      5 C          61.9082   88.4096   10.5788 C.ar    1  UNL1        0.0686
      6 C          61.5325   87.1062    9.9385 C.ar    1  UNL1        0.0048
      7 C          60.5520   87.0834    8.8035 C.ar    1  UNL1        0.0072
      8 C          62.8398   88.7421   11.7064 C.2     1  UNL1        0.2506
      9 O          63.6569   87.7609   12.4936 O.2     1  UNL1       -0.2699
     10 N          62.8108   90.2281   11.9087 N.am    1  UNL1       -0.2679
     11 C          61.8613   90.8140   10.9061 C.3     1  UNL1        0.1398
     12 C          62.1372   85.8257   10.4331 C.ar    1  UNL1        0.0106
     13 C          61.7906   85.3109   11.7986 C.ar    1  UNL1        0.0017
     14 C          62.3952   84.0304   12.2933 C.ar    1  UNL1        0.0114
     15 C          63.3466   83.2647   11.4223 C.ar    1  UNL1        0.0585
     16 CL         63.9512   81.9842   11.9170 Cl      1  UNL1       -0.0822
     17 C          63.6932   83.7795   10.0567 C.ar    1  UNL1        0.0228
     18 C          63.0886   85.0600    9.5621 C.ar    1  UNL1        0.0585
     19 CL         63.4352   85.5747    8.1965 Cl      1  UNL1       -0.0822
     20 C          60.1762   85.7799    8.1631 C.3     1  UNL1        0.0934
     21 N          60.6720   85.4502    6.7863 N.3     1  UNL1       -0.3174
     22 H          60.2601   86.0962    6.1129 H       1  UNL1        0.1192
     23 H          60.4048   84.4950    6.5484 H       1  UNL1        0.1192
     24 C          63.5938   90.9939   12.9337 C.3     1  UNL1        0.1235
     25 C          63.4844   90.6319   14.3852 C.3     1  UNL1        0.1351
     26 C          64.2844   91.2282   15.5052 C.3     1  UNL1        0.0339
     27 C          63.8504   90.5750   16.7838 C.3     1  UNL1        0.0346
     28 C          62.7821   89.5750   16.4541 C.3     1  UNL1        0.1422
     29 O          62.5559   89.6101   14.9716 O.3     1  UNL1       -0.3545
@<TRIPOS>BOND
     1     1     2    1
     2     2     3   ar
     3     3     4   ar
     4     4     5   ar
     5     5     6   ar
     6     6    12    1
     7    12    13   ar
     8    13    14   ar
     9    14    15   ar
    10    15    16    1
    11    15    17   ar
    12    17    18   ar
    13    18    19    1
    14     6     7   ar
    15     7    20    1
    16    20    21    1
    17     5     8    1
    18     8     9    2
    19     8    10   am
    20    10    24    1
    21    25    24    1
    22    25    26    1
    23    26    27    1
    24    27    28    1
    25    28    29    1
    26    10    11    1
    27     7     2   ar
    28    29    25    1
    29    11     4    1
    30    18    12   ar
    31    21    22    1
    32    21    23    1
@<TRIPOS>MOLECULE
*****
 29 32 0 0 0
SMALL
GASTEIGER

@<TRIPOS>ATOM
      1 C          60.8683   89.3139    9.1972 C.3     1  UNL1        0.0518
      2 C          61.6502   88.7319   10.3374 C.ar    1  UNL1        0.0563
      3 N          61.6925   87.2458   10.5364 N.ar    1  UNL1       -0.2524
      4 C          62.4743   86.6638   11.6766 C.ar    1  UNL1        0.0830
      5 C          63.2138   87.5678   12.6177 C.ar    1  UNL1        0.0686
      6 C          63.1715   89.0540   12.4187 C.ar    1  UNL1        0.0048
      7 C          62.3896   89.6360   11.2785 C.ar    1  UNL1        0.0072
      8 C          63.8949   86.7117   13.6439 C.2     1  UNL1        0.2506
      9 O          64.7452   87.2025   14.7779 O.2     1  UNL1       -0.2699
     10 N          63.5763   85.2784   13.3370 N.am    1  UNL1       -0.2679
     11 C          62.6983   85.2488   12.1211 C.3     1  UNL1        0.1398
     12 C          63.9110   89.9581   13.3598 C.ar    1  UNL1        0.0106
     13 C          65.1464   90.6726   12.8979 C.ar    1  UNL1        0.0017
     14 C          65.8860   91.5768   13.8389 C.ar    1  UNL1        0.0114
     15 C          65.3901   91.7665   15.2418 C.ar    1  UNL1        0.0585
     16 CL         66.1297   92.6706   16.1828 Cl      1  UNL1       -0.0822
     17 C          64.1547   91.0520   15.7037 C.ar    1  UNL1        0.0228
     18 C          63.4152   90.1478   14.7627 C.ar    1  UNL1        0.0585
     19 CL         62.1798   89.4333   15.2246 Cl      1  UNL1       -0.0822
     20 C          62.3473   91.1222   11.0794 C.3     1  UNL1        0.0934
     21 N          63.1570   91.7560    9.9873 N.3     1  UNL1       -0.3174
     22 H          64.1501   91.6389   10.1887 H       1  UNL1        0.1192
     23 H          62.9359   92.7502    9.9334 H       1  UNL1        0.1192
     24 C          64.0521   84.0843   14.1102 C.3     1  UNL1        0.1235
     25 C          63.3061   82.7861   14.0194 C.3     1  UNL1        0.1351
     26 C          63.7961   81.5321   13.3583 C.3     1  UNL1        0.0339
     27 C          62.7320   80.4850   13.5042 C.3     1  UNL1        0.0346
     28 C          61.5843   81.0919   14.2555 C.3     1  UNL1        0.1422
     29 O          61.9391   82.5141   14.5740 O.3     1  UNL1       -0.3545
@<TRIPOS>BOND
     1     1     2    1
     2     2     3   ar
     3     3     4   ar
     4     4     5   ar
     5     5     6   ar
     6     6    12    1
     7    12    13   ar
     8    13    14   ar
     9    14    15   ar
    10    15    16    1
    11    15    17   ar
    12    17    18   ar
    13    18    19    1
    14     6     7   ar
    15     7    20    1
    16    20    21    1
    17     5     8    1
    18     8     9    2
    19     8    10   am
    20    10    24    1
    21    25    24    1
    22    25    26    1
    23    26    27    1
    24    27    28    1
    25    28    29    1
    26    10    11    1
    27     7     2   ar
    28    29    25    1
    29    11     4    1
    30    18    12   ar
    31    21    22    1
    32    21    23    1
@<TRIPOS>MOLECULE
*****
 29 32 0 0 0
SMALL
GASTEIGER

@<TRIPOS>ATOM
      1 C          63.8911   83.7399   14.9156 C.3     1  UNL1        0.0518
      2 C          63.7209   85.0476   14.2005 C.ar    1  UNL1        0.0563
      3 N          64.2943   86.3033   14.7873 N.ar    1  UNL1       -0.2524
      4 C          64.1241   87.6110   14.0724 C.ar    1  UNL1        0.0830
      5 C          63.3806   87.6628   12.7707 C.ar    1  UNL1        0.0686
      6 C          62.8071   86.4071   12.1839 C.ar    1  UNL1        0.0048
      7 C          62.9773   85.0995   12.8989 C.ar    1  UNL1        0.0072
      8 C          63.3722   89.0864   12.2980 C.2     1  UNL1        0.2506
      9 O          62.7370   89.5930   11.0371 O.2     1  UNL1       -0.2699
     10 N          64.1106   89.9143   13.3076 N.am    1  UNL1       -0.2679
     11 C          64.5753   89.0025   14.4042 C.3     1  UNL1        0.1398
     12 C          62.0636   86.4589   10.8822 C.ar    1  UNL1        0.0106
     13 C          62.6498   85.8210    9.6577 C.ar    1  UNL1        0.0017
     14 C          61.9063   85.8727    8.3559 C.ar    1  UNL1        0.0114
     15 C          60.5766   86.5624    8.2788 C.ar    1  UNL1        0.0585
     16 CL         59.8331   86.6142    6.9770 Cl      1  UNL1       -0.0822
     17 C          59.9903   87.2003    9.5032 C.ar    1  UNL1        0.0228
     18 C          60.7338   87.1486   10.8050 C.ar    1  UNL1        0.0585
     19 CL         60.1475   87.7865   12.0294 Cl      1  UNL1       -0.0822
     20 C          62.4039   83.8436   12.3121 C.3     1  UNL1        0.0934
     21 N          63.2900   82.8933   11.5626 N.3     1  UNL1       -0.3174
     22 H          63.6259   83.3420   10.7104 H       1  UNL1        0.1192
     23 H          62.7616   82.0553   11.3201 H       1  UNL1        0.1192
     24 C          64.3434   91.3943   13.2336 C.3     1  UNL1        0.1235
     25 C          65.5339   92.0012   13.9150 C.3     1  UNL1        0.1351
     26 C          66.9424   91.9963   13.3993 C.3     1  UNL1        0.0339
     27 C          67.8039   92.7117   14.3973 C.3     1  UNL1        0.0346
     28 C          66.9279   93.1587   15.5299 C.3     1  UNL1        0.1422
     29 O          65.5248   92.7196   15.2318 O.3     1  UNL1       -0.3545
@<TRIPOS>BOND
     1     1     2    1
     2     2     3   ar
     3     3     4   ar
     4     4     5   ar
     5     5     6   ar
     6     6    12    1
     7    12    13   ar
     8    13    14   ar
     9    14    15   ar
    10    15    16    1
    11    15    17   ar
    12    17    18   ar
    13    18    19    1
    14     6     7   ar
    15     7    20    1
    16    20    21    1
    17     5     8    1
    18     8     9    2
    19     8    10   am
    20    10    24    1
    21    25    24    1
    22    25    26    1
    23    26    27    1
    24    27    28    1
    25    28    29    1
    26    10    11    1
    27     7     2   ar
    28    29    25    1
    29    11     4    1
    30    18    12   ar
    31    21    22    1
    32    21    23    1
@<TRIPOS>MOLECULE
*****
 29 32 0 0 0
SMALL
GASTEIGER

@<TRIPOS>ATOM
      1 C          63.9584   83.9127   14.6895 C.3     1  UNL1        0.0518
      2 C          63.7221   85.2114   13.9769 C.ar    1  UNL1        0.0563
      3 N          64.2554   86.4900   14.5519 N.ar    1  UNL1       -0.2524
      4 C          64.0191   87.7887   13.8394 C.ar    1  UNL1        0.0830
      5 C          63.2495   87.8087   12.5520 C.ar    1  UNL1        0.0686
      6 C          62.7162   86.5300   11.9771 C.ar    1  UNL1        0.0048
      7 C          62.9525   85.2313   12.6896 C.ar    1  UNL1        0.0072
      8 C          63.1748   89.2301   12.0786 C.2     1  UNL1        0.2506
      9 O          62.4959   89.7089   10.8297 O.2     1  UNL1       -0.2699
     10 N          63.8982   90.0885   13.0734 N.am    1  UNL1       -0.2679
     11 C          64.4200   89.1977   14.1617 C.3     1  UNL1        0.1398
     12 C          61.9466   86.5499   10.6897 C.ar    1  UNL1        0.0106
     13 C          62.5244   85.9131    9.4606 C.ar    1  UNL1        0.0017
     14 C          61.7549   85.9330    8.1732 C.ar    1  UNL1        0.0114
     15 C          60.4076   86.5896    8.1149 C.ar    1  UNL1        0.0585
     16 CL         59.6380   86.6095    6.8275 Cl      1  UNL1       -0.0822
     17 C          59.8297   87.2264    9.3440 C.ar    1  UNL1        0.0228
     18 C          60.5993   87.2066   10.6314 C.ar    1  UNL1        0.0585
     19 CL         60.0215   87.8434   11.8605 Cl      1  UNL1       -0.0822
     20 C          62.4192   83.9525   12.1147 C.3     1  UNL1        0.0934
     21 N          63.3296   83.0354   11.3531 N.3     1  UNL1       -0.3174
     22 H          63.6343   83.4945   10.4948 H       1  UNL1        0.1192
     23 H          62.8305   82.1768   11.1208 H       1  UNL1        0.1192
     24 C          64.0697   91.5766   12.9940 C.3     1  UNL1        0.1235
     25 C          65.1392   92.1627   12.1208 C.3     1  UNL1        0.1351
     26 C          64.9597   92.6500   10.7136 C.3     1  UNL1        0.0339
     27 C          66.2855   93.1530   10.2246 C.3     1  UNL1        0.0346
     28 C          67.2845   92.9766   11.3295 C.3     1  UNL1        0.1422
     29 O          66.5760   92.3646   12.5015 O.3     1  UNL1       -0.3545
@<TRIPOS>BOND
     1     1     2    1
     2     2     3   ar
     3     3     4   ar
     4     4     5   ar
     5     5     6   ar
     6     6    12    1
     7    12    13   ar
     8    13    14   ar
     9    14    15   ar
    10    15    16    1
    11    15    17   ar
    12    17    18   ar
    13    18    19    1
    14     6     7   ar
    15     7    20    1
    16    20    21    1
    17     5     8    1
    18     8     9    2
    19     8    10   am
    20    10    24    1
    21    25    24    1
    22    25    26    1
    23    26    27    1
    24    27    28    1
    25    28    29    1
    26    10    11    1
    27     7     2   ar
    28    29    25    1
    29    11     4    1
    30    18    12   ar
    31    21    22    1
    32    21    23    1
@<TRIPOS>MOLECULE
*****
 29 32 0 0 0
SMALL
GASTEIGER

@<TRIPOS>ATOM
      1 C          59.1827   89.0030    7.2565 C.3     1  UNL1        0.0518
      2 C          60.1200   88.8247    8.4140 C.ar    1  UNL1        0.0563
      3 N          60.4286   89.9840    9.3145 N.ar    1  UNL1       -0.2524
      4 C          61.3659   89.8057   10.4720 C.ar    1  UNL1        0.0830
      5 C          61.9946   88.4683   10.7289 C.ar    1  UNL1        0.0686
      6 C          61.6860   87.3091    9.8283 C.ar    1  UNL1        0.0048
      7 C          60.7487   87.4874    8.6708 C.ar    1  UNL1        0.0072
      8 C          62.8730   88.5936   11.9383 C.2     1  UNL1        0.2506
      9 O          63.6932   87.4967   12.5498 O.2     1  UNL1       -0.2699
     10 N          62.7871   90.0085   12.4288 N.am    1  UNL1       -0.2679
     11 C          61.8557   90.7577   11.5226 C.3     1  UNL1        0.1398
     12 C          62.3147   85.9716   10.0852 C.ar    1  UNL1        0.0106
     13 C          63.2102   85.3532    9.0529 C.ar    1  UNL1        0.0017
     14 C          63.8389   84.0158    9.3096 C.ar    1  UNL1        0.0114
     15 C          63.5721   83.2968   10.5987 C.ar    1  UNL1        0.0585
     16 CL         64.2009   81.9593   10.8555 Cl      1  UNL1       -0.0822
     17 C          62.6767   83.9152   11.6310 C.ar    1  UNL1        0.0228
     18 C          62.0479   85.2526   11.3743 C.ar    1  UNL1        0.0585
     19 CL         61.1525   85.8710   12.4066 Cl      1  UNL1       -0.0822
     20 C          60.4401   86.3281    7.7702 C.3     1  UNL1        0.0934
     21 N          59.0146   85.9570    7.4872 N.3     1  UNL1       -0.3174
     22 H          58.5718   85.6289    8.3455 H       1  UNL1        0.1192
     23 H          58.9888   85.2160    6.7867 H       1  UNL1        0.1192
     24 C          63.5064   90.5749   13.6170 C.3     1  UNL1        0.1235
     25 C          64.7766   91.3495   13.4257 C.3     1  UNL1        0.1351
     26 C          66.0107   91.2420   14.2715 C.3     1  UNL1        0.0339
     27 C          67.0325   92.1936   13.7235 C.3     1  UNL1        0.0346
     28 C          66.4300   92.8893   12.5391 C.3     1  UNL1        0.1422
     29 O          65.0357   92.3676   12.3550 O.3     1  UNL1       -0.3545
@<TRIPOS>BOND
     1     1     2    1
     2     2     3   ar
     3     3     4   ar
     4     4     5   ar
     5     5     6   ar
     6     6    12    1
     7    12    13   ar
     8    13    14   ar
     9    14    15   ar
    10    15    16    1
    11    15    17   ar
    12    17    18   ar
    13    18    19    1
    14     6     7   ar
    15     7    20    1
    16    20    21    1
    17     5     8    1
    18     8     9    2
    19     8    10   am
    20    10    24    1
    21    25    24    1
    22    25    26    1
    23    26    27    1
    24    27    28    1
    25    28    29    1
    26    10    11    1
    27     7     2   ar
    28    29    25    1
    29    11     4    1
    30    18    12   ar
    31    21    22    1
    32    21    23    1
@<TRIPOS>MOLECULE
*****
 29 32 0 0 0
SMALL
GASTEIGER

@<TRIPOS>ATOM
      1 C          63.0955   80.1416   11.5527 C.3     1  UNL1        0.0518
      2 C          62.9920   81.6371   11.6086 C.ar    1  UNL1        0.0563
      3 N          62.8908   82.4298   10.3392 N.ar    1  UNL1       -0.2524
      4 C          62.7873   83.9252   10.3951 C.ar    1  UNL1        0.0830
      5 C          62.7851   84.6278   11.7203 C.ar    1  UNL1        0.0686
      6 C          62.8863   83.8351   12.9897 C.ar    1  UNL1        0.0048
      7 C          62.9897   82.3397   12.9338 C.ar    1  UNL1        0.0072
      8 C          62.6720   86.1013   11.4636 C.2     1  UNL1        0.2506
      9 O          62.6333   87.1778   12.5075 O.2     1  UNL1       -0.2699
     10 N          62.6043   86.3094    9.9796 N.am    1  UNL1       -0.2679
     11 C          62.6757   84.9644    9.3192 C.3     1  UNL1        0.1398
     12 C          62.8840   84.5377   14.3150 C.ar    1  UNL1        0.0106
     13 C          61.5963   84.7288   15.0603 C.ar    1  UNL1        0.0017
     14 C          61.5940   85.4313   16.3856 C.ar    1  UNL1        0.0114
     15 C          62.8793   85.9428   16.9655 C.ar    1  UNL1        0.0585
     16 CL         62.8769   86.6454   18.2908 Cl      1  UNL1       -0.0822
     17 C          64.1669   85.7517   16.2203 C.ar    1  UNL1        0.0228
     18 C          64.1693   85.0492   14.8950 C.ar    1  UNL1        0.0585
     19 CL         65.4569   84.8581   14.1497 Cl      1  UNL1       -0.0822
     20 C          63.0909   81.5469   14.2032 C.3     1  UNL1        0.0934
     21 N          61.8458   81.0779   14.8959 N.3     1  UNL1       -0.3174
     22 H          61.3236   81.8840   15.2392 H       1  UNL1        0.1192
     23 H          62.0989   80.4774   15.6806 H       1  UNL1        0.1192
     24 C          62.4862   87.6304    9.2790 C.3     1  UNL1        0.1235
     25 C          61.7520   88.7632    9.9330 C.3     1  UNL1        0.1351
     26 C          62.3598   90.0486   10.4108 C.3     1  UNL1        0.0339
     27 C          61.2646   90.8893   10.9971 C.3     1  UNL1        0.0346
     28 C          59.9800   90.1236   10.8817 C.3     1  UNL1        0.1422
     29 O          60.2812   88.8095   10.2240 O.3     1  UNL1       -0.3545
@<TRIPOS>BOND
     1     1     2    1
     2     2     3   ar
     3     3     4   ar
     4     4     5   ar
     5     5     6   ar
     6     6    12    1
     7    12    13   ar
     8    13    14   ar
     9    14    15   ar
    10    15    16    1
    11    15    17   ar
    12    17    18   ar
    13    18    19    1
    14     6     7   ar
    15     7    20    1
    16    20    21    1
    17     5     8    1
    18     8     9    2
    19     8    10   am
    20    10    24    1
    21    25    24    1
    22    25    26    1
    23    26    27    1
    24    27    28    1
    25    28    29    1
    26    10    11    1
    27     7     2   ar
    28    29    25    1
    29    11     4    1
    30    18    12   ar
    31    21    22    1
    32    21    23    1
