@<TRIPOS>MOLECULE
*****
 35 40 0 0 0
SMALL
GASTEIGER

@<TRIPOS>ATOM
      1 C          63.2076   86.4402   15.9477 C.ar    1  UNL1        0.1534
      2 N          63.0516   86.7103   17.4149 N.ar    1  UNL1       -0.1329
      3 N          63.1225   88.1172   17.9302 N.ar    1  UNL1       -0.1452
      4 C          63.3494   89.2540   16.9782 C.ar    1  UNL1        0.1222
      5 C          63.5054   88.9840   15.5111 C.ar    1  UNL1        0.0237
      6 C          63.7323   90.1208   14.5591 C.ar    1  UNL1        0.0018
      7 C          63.8883   89.8507   13.0920 C.ar    1  UNL1        0.0028
      8 C          63.8174   88.4437   12.5766 C.ar    1  UNL1        0.0002
      9 C          63.5905   87.3069   13.5286 C.ar    1  UNL1        0.0029
     10 C          63.4345   87.5770   14.9958 C.ar    1  UNL1        0.0349
     11 C          61.6063   80.0977   13.8363 C.3     1  UNL1        0.0948
     12 C          62.9240   80.8125   13.8864 C.2     1  UNL1        0.2262
     13 O          64.1709   80.1205   13.4212 O.2     1  UNL1       -0.2749
     14 N          62.9949   82.2194   14.4017 N.am    1  UNL1       -0.2761
     15 C          61.7480   82.9114   14.8670 C.3     1  UNL1        0.1149
     16 C          61.8189   84.3184   15.3823 C.3     1  UNL1        0.1137
     17 N          63.1366   85.0333   15.4324 N.pl3   1  UNL1       -0.2900
     18 C          64.3835   84.3412   14.9672 C.3     1  UNL1        0.0941
     19 C          65.7013   85.0562   15.0173 C.3     1  UNL1        0.0233
     20 C          64.3126   82.9343   14.4519 C.3     1  UNL1        0.1131
     21 C          64.1152   90.9875   12.1400 C.ar    1  UNL1        0.0333
     22 C          63.3749   91.0331   10.8362 C.ar    1  UNL1       -0.0188
     23 C          62.4078   89.9419   10.4844 C.3     1  UNL1        0.0311
     24 C          63.6019   92.1699    9.8843 C.ar    1  UNL1       -0.0040
     25 C          64.5690   93.2611   10.2362 C.ar    1  UNL1        0.0057
     26 C          65.3093   93.2156   11.5401 C.ar    1  UNL1        0.0717
     27 C          66.3169   94.1410   12.1551 C.ar    1  UNL1        0.1704
     28 N          66.7127   93.5761   13.4870 N.ar    1  UNL1       -0.0621
     29 O          65.9498   92.3016   13.6953 O.2     1  UNL1       -0.3522
     30 C          65.0824   92.0788   12.4920 C.ar    1  UNL1        0.1777
     31 N          66.8373   95.4087   11.5451 N.pl3   1  UNL1       -0.3171
     32 H          66.9303   96.2186   12.0971 H       1  UNL1        0.1482
     33 C          67.2161   95.4425   10.0941 C.3     1  UNL1        0.0706
     34 C          67.3303   96.1896    8.7984 C.3     1  UNL1        0.0212
     35 C          67.7579   94.7540    8.8766 C.3     1  UNL1        0.0212
@<TRIPOS>BOND
     1    11    12    1
     2    12    13    2
     3    12    14   am
     4    14    15    1
     5    15    16    1
     6    16    17    1
     7    17     1    1
     8     1     2   ar
     9     2     3   ar
    10     3     4   ar
    11     4     5   ar
    12     5     6   ar
    13     6     7   ar
    14     7    21    1
    15    21    22   ar
    16    22    23    1
    17    22    24   ar
    18    24    25   ar
    19    25    26   ar
    20    26    27   ar
    21    27    31    1
    22    31    33    1
    23    33    34    1
    24    34    35    1
    25    27    28   ar
    26    28    29   ar
    27    29    30   ar
    28     7     8   ar
    29     8     9   ar
    30     9    10   ar
    31    17    18    1
    32    18    19    1
    33    18    20    1
    34    20    14    1
    35    10     1   ar
    36    10     5   ar
    37    30    21   ar
    38    30    26   ar
    39    35    33    1
    40    31    32    1
@<TRIPOS>MOLECULE
*****
 35 40 0 0 0
SMALL
GASTEIGER

@<TRIPOS>ATOM
      1 C          62.8123   90.2284   11.9743 C.ar    1  UNL1        0.1534
      2 N          61.7989   91.0358   11.2187 N.ar    1  UNL1       -0.1329
      3 N          60.7576   90.3453   10.3887 N.ar    1  UNL1       -0.1452
      4 C          60.7298   88.8474   10.3143 C.ar    1  UNL1        0.1222
      5 C          61.7432   88.0400   11.0699 C.ar    1  UNL1        0.0237
      6 C          61.7154   86.5421   10.9955 C.ar    1  UNL1        0.0018
      7 C          62.7288   85.7347   11.7511 C.ar    1  UNL1        0.0028
      8 C          63.7701   86.4251   12.5812 C.ar    1  UNL1        0.0002
      9 C          63.7980   87.9230   12.6556 C.ar    1  UNL1        0.0029
     10 C          62.7845   88.7305   11.8999 C.ar    1  UNL1        0.0349
     11 C          67.0669   92.7153   16.7663 C.3     1  UNL1        0.0948
     12 C          66.9775   92.9902   15.2945 C.2     1  UNL1        0.2262
     13 O          67.9294   93.9556   14.6526 O.2     1  UNL1       -0.2749
     14 N          65.9362   92.2998   14.4645 N.am    1  UNL1       -0.2761
     15 C          64.9844   91.3344   15.1063 C.3     1  UNL1        0.1149
     16 C          63.9430   90.6439   14.2763 C.3     1  UNL1        0.1137
     17 N          63.8536   90.9188   12.8044 N.pl3   1  UNL1       -0.2900
     18 C          64.8055   91.8842   12.1625 C.3     1  UNL1        0.0941
     19 C          64.7161   92.1591   10.6906 C.3     1  UNL1        0.0233
     20 C          65.8468   92.5746   12.9925 C.3     1  UNL1        0.1131
     21 C          62.7009   84.2368   11.6767 C.ar    1  UNL1        0.0333
     22 C          63.1903   83.5379   10.4431 C.ar    1  UNL1       -0.0188
     23 C          63.7076   84.3369    9.2838 C.3     1  UNL1        0.0311
     24 C          63.1625   82.0400   10.3687 C.ar    1  UNL1       -0.0040
     25 C          62.6453   81.2410   11.5279 C.ar    1  UNL1        0.0057
     26 C          62.1558   81.9398   12.7617 C.ar    1  UNL1        0.0717
     27 C          61.5945   81.4220   14.0527 C.ar    1  UNL1        0.1704
     28 N          61.2754   82.5998   14.9249 N.ar    1  UNL1       -0.0621
     29 O          61.6395   83.8456   14.1731 O.2     1  UNL1       -0.3522
     30 C          62.1837   83.4377   12.8361 C.ar    1  UNL1        0.1777
     31 N          61.3884   79.9795   14.4089 N.pl3   1  UNL1       -0.3171
     32 H          62.1651   79.3973   14.5734 H       1  UNL1        0.1482
     33 C          59.9990   79.4242   14.5144 C.3     1  UNL1        0.0706
     34 C          59.0725   78.2465   14.5821 C.3     1  UNL1        0.0212
     35 C          58.5191   79.6399   14.6295 C.3     1  UNL1        0.0212
@<TRIPOS>BOND
     1    11    12    1
     2    12    13    2
     3    12    14   am
     4    14    15    1
     5    15    16    1
     6    16    17    1
     7    17     1    1
     8     1     2   ar
     9     2     3   ar
    10     3     4   ar
    11     4     5   ar
    12     5     6   ar
    13     6     7   ar
    14     7    21    1
    15    21    22   ar
    16    22    23    1
    17    22    24   ar
    18    24    25   ar
    19    25    26   ar
    20    26    27   ar
    21    27    31    1
    22    31    33    1
    23    33    34    1
    24    34    35    1
    25    27    28   ar
    26    28    29   ar
    27    29    30   ar
    28     7     8   ar
    29     8     9   ar
    30     9    10   ar
    31    17    18    1
    32    18    19    1
    33    18    20    1
    34    20    14    1
    35    10     1   ar
    36    10     5   ar
    37    30    21   ar
    38    30    26   ar
    39    35    33    1
    40    31    32    1
@<TRIPOS>MOLECULE
*****
 35 40 0 0 0
SMALL
GASTEIGER

@<TRIPOS>ATOM
      1 C          64.8329   91.5949   14.5264 C.ar    1  UNL1        0.1534
      2 N          64.5076   92.5207   15.6608 N.ar    1  UNL1       -0.1329
      3 N          63.7917   92.0004   16.8719 N.ar    1  UNL1       -0.1452
      4 C          63.4011   90.5542   16.9485 C.ar    1  UNL1        0.1222
      5 C          63.7264   89.6283   15.8141 C.ar    1  UNL1        0.0237
      6 C          63.3357   88.1821   15.8907 C.ar    1  UNL1        0.0018
      7 C          63.6610   87.2562   14.7563 C.ar    1  UNL1        0.0028
      8 C          64.3770   87.7766   13.5452 C.ar    1  UNL1        0.0002
      9 C          64.7676   89.2228   13.4686 C.ar    1  UNL1        0.0029
     10 C          64.4423   90.1487   14.6031 C.ar    1  UNL1        0.0349
     11 C          66.9132   94.1640    8.4997 C.3     1  UNL1        0.0948
     12 C          67.6967   93.6761    9.6821 C.2     1  UNL1        0.2262
     13 O          69.1961   93.7086    9.6535 O.2     1  UNL1       -0.2749
     14 N          66.9807   93.1559   10.8931 N.am    1  UNL1       -0.2761
     15 C          65.4813   93.1234   10.9218 C.3     1  UNL1        0.1149
     16 C          64.7654   92.6031   12.1329 C.3     1  UNL1        0.1137
     17 N          65.5488   92.1152   13.3153 N.pl3   1  UNL1       -0.2900
     18 C          67.0482   92.1476   13.2867 C.3     1  UNL1        0.0941
     19 C          67.8316   91.6597   14.4692 C.3     1  UNL1        0.0233
     20 C          67.7642   92.6679   12.0756 C.3     1  UNL1        0.1131
     21 C          63.2704   85.8100   14.8330 C.ar    1  UNL1        0.0333
     22 C          62.9291   85.1945   16.1576 C.ar    1  UNL1       -0.0188
     23 C          62.9783   86.0252   17.4055 C.3     1  UNL1        0.0311
     24 C          62.5384   83.7483   16.2342 C.ar    1  UNL1       -0.0040
     25 C          62.4892   82.9176   14.9863 C.ar    1  UNL1        0.0057
     26 C          62.8306   83.5331   13.6616 C.ar    1  UNL1        0.0717
     27 C          62.8703   82.9680   12.2726 C.ar    1  UNL1        0.1704
     28 N          63.2855   84.0649   11.3377 N.ar    1  UNL1       -0.0621
     29 O          63.5023   85.3080   12.1486 O.2     1  UNL1       -0.3522
     30 C          63.2212   84.9793   13.5849 C.ar    1  UNL1        0.1777
     31 N          62.5509   81.5541   11.8866 N.pl3   1  UNL1       -0.3171
     32 H          62.6121   81.2754   10.9444 H       1  UNL1        0.1482
     33 C          62.1383   80.5651   12.9361 C.3     1  UNL1        0.0706
     34 C          61.1165   80.0507   13.9063 C.3     1  UNL1        0.0212
     35 C          62.4455   79.3662   13.7837 C.3     1  UNL1        0.0212
@<TRIPOS>BOND
     1    11    12    1
     2    12    13    2
     3    12    14   am
     4    14    15    1
     5    15    16    1
     6    16    17    1
     7    17     1    1
     8     1     2   ar
     9     2     3   ar
    10     3     4   ar
    11     4     5   ar
    12     5     6   ar
    13     6     7   ar
    14     7    21    1
    15    21    22   ar
    16    22    23    1
    17    22    24   ar
    18    24    25   ar
    19    25    26   ar
    20    26    27   ar
    21    27    31    1
    22    31    33    1
    23    33    34    1
    24    34    35    1
    25    27    28   ar
    26    28    29   ar
    27    29    30   ar
    28     7     8   ar
    29     8     9   ar
    30     9    10   ar
    31    17    18    1
    32    18    19    1
    33    18    20    1
    34    20    14    1
    35    10     1   ar
    36    10     5   ar
    37    30    21   ar
    38    30    26   ar
    39    35    33    1
    40    31    32    1
@<TRIPOS>MOLECULE
*****
 35 40 0 0 0
SMALL
GASTEIGER

@<TRIPOS>ATOM
      1 C          62.0478   86.8246   10.5609 C.ar    1  UNL1        0.1534
      2 N          61.2189   87.3186    9.4124 N.ar    1  UNL1       -0.1329
      3 N          60.9694   88.7882    9.2451 N.ar    1  UNL1       -0.1452
      4 C          61.5487   89.7637   10.2263 C.ar    1  UNL1        0.1222
      5 C          62.3775   89.2698   11.3747 C.ar    1  UNL1        0.0237
      6 C          62.9568   90.2454   12.3559 C.ar    1  UNL1        0.0018
      7 C          63.7857   89.7514   13.5043 C.ar    1  UNL1        0.0028
      8 C          64.0353   88.2817   13.6716 C.ar    1  UNL1        0.0002
      9 C          63.4560   87.3061   12.6905 C.ar    1  UNL1        0.0029
     10 C          62.6271   87.8002   11.5420 C.ar    1  UNL1        0.0349
     11 C          62.7750   80.2848   12.5487 C.3     1  UNL1        0.0948
     12 C          63.0462   80.9462   11.2301 C.2     1  UNL1        0.2262
     13 O          63.5669   80.1380   10.0787 O.2     1  UNL1       -0.2749
     14 N          62.7966   82.4157   11.0628 N.am    1  UNL1       -0.2761
     15 C          62.2758   83.2239   12.2142 C.3     1  UNL1        0.1149
     16 C          62.0262   84.6935   12.0469 C.3     1  UNL1        0.1137
     17 N          62.2974   85.3550   10.7282 N.pl3   1  UNL1       -0.2900
     18 C          62.8181   84.5468    9.5768 C.3     1  UNL1        0.0941
     19 C          63.0893   85.2083    8.2581 C.3     1  UNL1        0.0233
     20 C          63.0677   83.0773    9.7441 C.3     1  UNL1        0.1131
     21 C          64.3650   90.7270   14.4854 C.ar    1  UNL1        0.0333
     22 C          63.8606   90.7593   15.8977 C.ar    1  UNL1       -0.0188
     23 C          62.7770   89.8160   16.3288 C.3     1  UNL1        0.0311
     24 C          64.4399   91.7348   16.8788 C.ar    1  UNL1       -0.0040
     25 C          65.5236   92.6781   16.4477 C.ar    1  UNL1        0.0057
     26 C          66.0280   92.6459   15.0354 C.ar    1  UNL1        0.0717
     27 C          67.0789   93.4475   14.3263 C.ar    1  UNL1        0.1704
     28 N          67.1491   92.9674   12.9070 N.ar    1  UNL1       -0.0621
     29 O          66.1416   91.8690   12.7388 O.2     1  UNL1       -0.3522
     30 C          65.4487   91.6703   14.0542 C.ar    1  UNL1        0.1777
     31 N          67.9132   94.5379   14.9306 N.pl3   1  UNL1       -0.3171
     32 H          67.6615   95.4806   14.7991 H       1  UNL1        0.1482
     33 C          69.1309   94.1921   15.7352 C.3     1  UNL1        0.0706
     34 C          70.5052   94.5391   16.2262 C.3     1  UNL1        0.0212
     35 C          69.8660   93.2460   16.6378 C.3     1  UNL1        0.0212
@<TRIPOS>BOND
     1    11    12    1
     2    12    13    2
     3    12    14   am
     4    14    15    1
     5    15    16    1
     6    16    17    1
     7    17     1    1
     8     1     2   ar
     9     2     3   ar
    10     3     4   ar
    11     4     5   ar
    12     5     6   ar
    13     6     7   ar
    14     7    21    1
    15    21    22   ar
    16    22    23    1
    17    22    24   ar
    18    24    25   ar
    19    25    26   ar
    20    26    27   ar
    21    27    31    1
    22    31    33    1
    23    33    34    1
    24    34    35    1
    25    27    28   ar
    26    28    29   ar
    27    29    30   ar
    28     7     8   ar
    29     8     9   ar
    30     9    10   ar
    31    17    18    1
    32    18    19    1
    33    18    20    1
    34    20    14    1
    35    10     1   ar
    36    10     5   ar
    37    30    21   ar
    38    30    26   ar
    39    35    33    1
    40    31    32    1
@<TRIPOS>MOLECULE
*****
 35 40 0 0 0
SMALL
GASTEIGER

@<TRIPOS>ATOM
      1 C          63.1171   86.2276   16.2478 C.ar    1  UNL1        0.1534
      2 N          62.5168   86.1661   17.6210 N.ar    1  UNL1       -0.1329
      3 N          62.4372   87.4062   18.4610 N.ar    1  UNL1       -0.1452
      4 C          62.9578   88.7080   17.9277 C.ar    1  UNL1        0.1222
      5 C          63.5581   88.7695   16.5545 C.ar    1  UNL1        0.0237
      6 C          64.0788   90.0713   16.0212 C.ar    1  UNL1        0.0018
      7 C          64.6791   90.1329   14.6480 C.ar    1  UNL1        0.0028
      8 C          64.7588   88.8926   13.8080 C.ar    1  UNL1        0.0002
      9 C          64.2382   87.5909   14.3412 C.ar    1  UNL1        0.0029
     10 C          63.6378   87.5294   15.7145 C.ar    1  UNL1        0.0349
     11 C          62.2180   80.4135   12.6929 C.3     1  UNL1        0.0948
     12 C          63.4360   81.2669   12.8877 C.2     1  UNL1        0.2262
     13 O          64.7337   80.8802   12.2425 O.2     1  UNL1       -0.2749
     14 N          63.3562   82.5070   13.7277 N.am    1  UNL1       -0.2761
     15 C          62.0585   82.8937   14.3729 C.3     1  UNL1        0.1149
     16 C          61.9788   84.1339   15.2130 C.3     1  UNL1        0.1137
     17 N          63.1968   84.9874   15.4078 N.pl3   1  UNL1       -0.2900
     18 C          64.4946   84.6007   14.7625 C.3     1  UNL1        0.0941
     19 C          65.7126   85.4543   14.9573 C.3     1  UNL1        0.0233
     20 C          64.5743   83.3606   13.9225 C.3     1  UNL1        0.1131
     21 C          65.1998   91.4346   14.1148 C.ar    1  UNL1        0.0333
     22 C          65.9977   92.3433   15.0023 C.ar    1  UNL1       -0.0188
     23 C          66.2749   91.9502   16.4230 C.3     1  UNL1        0.0311
     24 C          66.5183   93.6450   14.4690 C.ar    1  UNL1       -0.0040
     25 C          66.2411   94.0381   13.0482 C.ar    1  UNL1        0.0057
     26 C          65.4432   93.1294   12.1607 C.ar    1  UNL1        0.0717
     27 C          65.0138   93.2486   10.7284 C.ar    1  UNL1        0.1704
     28 N          64.2277   92.0205   10.3765 N.ar    1  UNL1       -0.0621
     29 O          64.1713   91.1423   11.5912 O.2     1  UNL1       -0.3522
     30 C          64.9225   91.8277   12.6939 C.ar    1  UNL1        0.1777
     31 N          65.3171   94.3946    9.8094 N.pl3   1  UNL1       -0.3171
     32 H          64.5984   95.0087    9.5345 H       1  UNL1        0.1482
     33 C          66.7156   94.6050    9.3093 C.3     1  UNL1        0.0706
     34 C          67.7083   95.4158    8.5301 C.3     1  UNL1        0.0212
     35 C          68.1449   94.1587    9.2221 C.3     1  UNL1        0.0212
@<TRIPOS>BOND
     1    11    12    1
     2    12    13    2
     3    12    14   am
     4    14    15    1
     5    15    16    1
     6    16    17    1
     7    17     1    1
     8     1     2   ar
     9     2     3   ar
    10     3     4   ar
    11     4     5   ar
    12     5     6   ar
    13     6     7   ar
    14     7    21    1
    15    21    22   ar
    16    22    23    1
    17    22    24   ar
    18    24    25   ar
    19    25    26   ar
    20    26    27   ar
    21    27    31    1
    22    31    33    1
    23    33    34    1
    24    34    35    1
    25    27    28   ar
    26    28    29   ar
    27    29    30   ar
    28     7     8   ar
    29     8     9   ar
    30     9    10   ar
    31    17    18    1
    32    18    19    1
    33    18    20    1
    34    20    14    1
    35    10     1   ar
    36    10     5   ar
    37    30    21   ar
    38    30    26   ar
    39    35    33    1
    40    31    32    1
@<TRIPOS>MOLECULE
*****
 35 40 0 0 0
SMALL
GASTEIGER

@<TRIPOS>ATOM
      1 C          72.8426   73.5380   13.6729 C.ar    1  UNL1        0.1534
      2 N          73.1164   72.3738   12.7677 N.ar    1  UNL1       -0.1329
      3 N          73.5116   72.6105   11.3402 N.ar    1  UNL1       -0.1452
      4 C          73.6330   74.0114   10.8179 C.ar    1  UNL1        0.1222
      5 C          73.3592   75.1756   11.7232 C.ar    1  UNL1        0.0237
      6 C          73.4806   76.5765   11.2009 C.ar    1  UNL1        0.0018
      7 C          73.2067   77.7408   12.1062 C.ar    1  UNL1        0.0028
      8 C          72.8115   77.5041   13.5337 C.ar    1  UNL1        0.0002
      9 C          72.6901   76.1032   14.0560 C.ar    1  UNL1        0.0029
     10 C          72.9639   74.9390   13.1507 C.ar    1  UNL1        0.0349
     11 C          72.1431   73.0764   20.4955 C.3     1  UNL1        0.0948
     12 C          71.2615   72.5915   19.3830 C.2     1  UNL1        0.2262
     13 O          69.9847   71.8701   19.6979 O.2     1  UNL1       -0.2749
     14 N          71.6568   72.8282   17.9555 N.am    1  UNL1       -0.2761
     15 C          72.9336   73.5496   17.6405 C.3     1  UNL1        0.1149
     16 C          73.3289   73.7862   16.2130 C.3     1  UNL1        0.1137
     17 N          72.4473   73.3014   15.1005 N.pl3   1  UNL1       -0.2900
     18 C          71.1705   72.5800   15.4154 C.3     1  UNL1        0.0941
     19 C          70.2889   72.0951   14.3028 C.3     1  UNL1        0.0233
     20 C          70.7752   72.3433   16.8429 C.3     1  UNL1        0.1131
     21 C          73.3281   79.1417   11.5839 C.ar    1  UNL1        0.0333
     22 C          73.4585   80.2899   12.5402 C.ar    1  UNL1       -0.0188
     23 C          73.4675   80.0372   14.0187 C.3     1  UNL1        0.0311
     24 C          73.5799   81.6908   12.0180 C.ar    1  UNL1       -0.0040
     25 C          73.5709   81.9435   10.5395 C.ar    1  UNL1        0.0057
     26 C          73.4405   80.7952    9.5831 C.ar    1  UNL1        0.0717
     27 C          73.4015   80.7363    8.0848 C.ar    1  UNL1        0.1704
     28 N          73.2560   79.2991    7.6810 N.ar    1  UNL1       -0.0621
     29 O          73.2051   78.4696    8.9297 O.2     1  UNL1       -0.3522
     30 C          73.3191   79.3943   10.1053 C.ar    1  UNL1        0.1777
     31 N          73.4921   81.9089    7.1537 N.pl3   1  UNL1       -0.3171
     32 H          73.9283   82.7402    7.4501 H       1  UNL1        0.1482
     33 C          72.9180   81.8148    5.7711 C.3     1  UNL1        0.0706
     34 C          73.0448   82.0411    4.2937 C.3     1  UNL1        0.0212
     35 C          71.7969   81.4257    4.8538 C.3     1  UNL1        0.0212
@<TRIPOS>BOND
     1    11    12    1
     2    12    13    2
     3    12    14   am
     4    14    15    1
     5    15    16    1
     6    16    17    1
     7    17     1    1
     8     1     2   ar
     9     2     3   ar
    10     3     4   ar
    11     4     5   ar
    12     5     6   ar
    13     6     7   ar
    14     7    21    1
    15    21    22   ar
    16    22    23    1
    17    22    24   ar
    18    24    25   ar
    19    25    26   ar
    20    26    27   ar
    21    27    31    1
    22    31    33    1
    23    33    34    1
    24    34    35    1
    25    27    28   ar
    26    28    29   ar
    27    29    30   ar
    28     7     8   ar
    29     8     9   ar
    30     9    10   ar
    31    17    18    1
    32    18    19    1
    33    18    20    1
    34    20    14    1
    35    10     1   ar
    36    10     5   ar
    37    30    21   ar
    38    30    26   ar
    39    35    33    1
    40    31    32    1
@<TRIPOS>MOLECULE
*****
 35 40 0 0 0
SMALL
GASTEIGER

@<TRIPOS>ATOM
      1 C          63.4922   90.0083   11.8836 C.ar    1  UNL1        0.1534
      2 N          62.7686   90.5411   10.6825 N.ar    1  UNL1       -0.1329
      3 N          61.8343   89.6534    9.9151 N.ar    1  UNL1       -0.1452
      4 C          61.6234   88.2331   10.3487 C.ar    1  UNL1        0.1222
      5 C          62.3470   87.7003   11.5498 C.ar    1  UNL1        0.0237
      6 C          62.1361   86.2799   11.9834 C.ar    1  UNL1        0.0018
      7 C          62.8597   85.7472   13.1845 C.ar    1  UNL1        0.0028
      8 C          63.7941   86.6348   13.9520 C.ar    1  UNL1        0.0002
      9 C          64.0049   88.0552   13.5184 C.ar    1  UNL1        0.0029
     10 C          63.2813   88.5880   12.3172 C.ar    1  UNL1        0.0349
     11 C          67.6012   93.2146   16.3653 C.3     1  UNL1        0.0948
     12 C          67.2298   93.5589   14.9534 C.2     1  UNL1        0.2262
     13 O          67.7928   94.7909   14.3090 O.2     1  UNL1       -0.2749
     14 N          66.2954   92.6713   14.1860 N.am    1  UNL1       -0.2761
     15 C          65.7324   91.4393   14.8305 C.3     1  UNL1        0.1149
     16 C          64.7980   90.5517   14.0630 C.3     1  UNL1        0.1137
     17 N          64.4266   90.8960   12.6511 N.pl3   1  UNL1       -0.2900
     18 C          64.9896   92.1280   12.0066 C.3     1  UNL1        0.0941
     19 C          64.6181   92.4723   10.5947 C.3     1  UNL1        0.0233
     20 C          65.9239   93.0156   12.7740 C.3     1  UNL1        0.1131
     21 C          62.6488   84.3268   13.6182 C.ar    1  UNL1        0.0333
     22 C          62.2890   84.0230   15.0423 C.ar    1  UNL1       -0.0188
     23 C          62.1400   85.1395   16.0327 C.3     1  UNL1        0.0311
     24 C          62.0781   82.6026   15.4759 C.ar    1  UNL1       -0.0040
     25 C          62.2271   81.4860   14.4855 C.ar    1  UNL1        0.0057
     26 C          62.5870   81.7898   13.0612 C.ar    1  UNL1        0.0717
     27 C          62.8013   80.9047   11.8694 C.ar    1  UNL1        0.1704
     28 N          63.1445   81.7780   10.6992 N.ar    1  UNL1       -0.0621
     29 O          63.1424   83.2028   11.1677 O.2     1  UNL1       -0.3522
     30 C          62.7978   83.2102   12.6276 C.ar    1  UNL1        0.1777
     31 N          62.6915   79.4088   11.8510 N.pl3   1  UNL1       -0.3171
     32 H          62.4452   78.9232   12.6712 H       1  UNL1        0.1482
     33 C          62.9570   78.6528   10.5830 C.3     1  UNL1        0.0706
     34 C          63.0805   78.6257    9.0883 C.3     1  UNL1        0.0212
     35 C          63.2934   77.3704    9.8813 C.3     1  UNL1        0.0212
@<TRIPOS>BOND
     1    11    12    1
     2    12    13    2
     3    12    14   am
     4    14    15    1
     5    15    16    1
     6    16    17    1
     7    17     1    1
     8     1     2   ar
     9     2     3   ar
    10     3     4   ar
    11     4     5   ar
    12     5     6   ar
    13     6     7   ar
    14     7    21    1
    15    21    22   ar
    16    22    23    1
    17    22    24   ar
    18    24    25   ar
    19    25    26   ar
    20    26    27   ar
    21    27    31    1
    22    31    33    1
    23    33    34    1
    24    34    35    1
    25    27    28   ar
    26    28    29   ar
    27    29    30   ar
    28     7     8   ar
    29     8     9   ar
    30     9    10   ar
    31    17    18    1
    32    18    19    1
    33    18    20    1
    34    20    14    1
    35    10     1   ar
    36    10     5   ar
    37    30    21   ar
    38    30    26   ar
    39    35    33    1
    40    31    32    1
@<TRIPOS>MOLECULE
*****
 35 40 0 0 0
SMALL
GASTEIGER

@<TRIPOS>ATOM
      1 C          63.1221   84.9907   12.2377 C.ar    1  UNL1        0.1534
      2 N          63.3353   83.6711   12.9182 N.ar    1  UNL1       -0.1329
      3 N          63.8889   83.6266   14.3115 N.ar    1  UNL1       -0.1452
      4 C          64.2293   84.9017   15.0244 C.ar    1  UNL1        0.1222
      5 C          64.0161   86.2213   14.3440 C.ar    1  UNL1        0.0237
      6 C          64.3564   87.4964   15.0569 C.ar    1  UNL1        0.0018
      7 C          64.1432   88.8161   14.3765 C.ar    1  UNL1        0.0028
      8 C          63.5895   88.8606   12.9830 C.ar    1  UNL1        0.0002
      9 C          63.2492   87.5855   12.2701 C.ar    1  UNL1        0.0029
     10 C          63.4624   86.2658   12.9506 C.ar    1  UNL1        0.0349
     11 C          59.7126   86.0225    6.3589 C.3     1  UNL1        0.0948
     12 C          60.9076   85.1689    6.6642 C.2     1  UNL1        0.2262
     13 O          61.5490   84.3598    5.5761 O.2     1  UNL1       -0.2749
     14 N          61.4612   85.1244    8.0575 N.am    1  UNL1       -0.2761
     15 C          60.8198   85.9335    9.1456 C.3     1  UNL1        0.1149
     16 C          61.3734   85.8889   10.5390 C.3     1  UNL1        0.1137
     17 N          62.5684   85.0353   10.8443 N.pl3   1  UNL1       -0.2900
     18 C          63.2098   84.2262    9.7562 C.3     1  UNL1        0.0941
     19 C          64.4049   83.3725   10.0616 C.3     1  UNL1        0.0233
     20 C          62.6563   84.2707    8.3629 C.3     1  UNL1        0.1131
     21 C          64.4836   90.0912   15.0894 C.ar    1  UNL1        0.0333
     22 C          63.8290   90.4158   16.3994 C.ar    1  UNL1       -0.0188
     23 C          62.8341   89.4652   16.9964 C.3     1  UNL1        0.0311
     24 C          64.1694   91.6909   17.1123 C.ar    1  UNL1       -0.0040
     25 C          65.1643   92.6414   16.5152 C.ar    1  UNL1        0.0057
     26 C          65.8189   92.3168   15.2051 C.ar    1  UNL1        0.0717
     27 C          66.8299   93.0545   14.3782 C.ar    1  UNL1        0.1704
     28 N          67.1143   92.2354   13.1543 N.ar    1  UNL1       -0.0621
     29 O          66.2792   90.9914   13.2247 O.2     1  UNL1       -0.3522
     30 C          65.4786   91.0417   14.4922 C.ar    1  UNL1        0.1777
     31 N          67.4479   94.3789   14.7160 N.pl3   1  UNL1       -0.3171
     32 H          67.0540   95.2099   14.3644 H       1  UNL1        0.1482
     33 C          68.6659   94.4372   15.5894 C.3     1  UNL1        0.0706
     34 C          69.6867   95.2369   16.3435 C.3     1  UNL1        0.0212
     35 C          69.7550   93.7385   16.3482 C.3     1  UNL1        0.0212
@<TRIPOS>BOND
     1    11    12    1
     2    12    13    2
     3    12    14   am
     4    14    15    1
     5    15    16    1
     6    16    17    1
     7    17     1    1
     8     1     2   ar
     9     2     3   ar
    10     3     4   ar
    11     4     5   ar
    12     5     6   ar
    13     6     7   ar
    14     7    21    1
    15    21    22   ar
    16    22    23    1
    17    22    24   ar
    18    24    25   ar
    19    25    26   ar
    20    26    27   ar
    21    27    31    1
    22    31    33    1
    23    33    34    1
    24    34    35    1
    25    27    28   ar
    26    28    29   ar
    27    29    30   ar
    28     7     8   ar
    29     8     9   ar
    30     9    10   ar
    31    17    18    1
    32    18    19    1
    33    18    20    1
    34    20    14    1
    35    10     1   ar
    36    10     5   ar
    37    30    21   ar
    38    30    26   ar
    39    35    33    1
    40    31    32    1
