@<TRIPOS>MOLECULE
*****
 37 40 0 0 0
SMALL
GASTEIGER

@<TRIPOS>ATOM
      1 C          62.2452   87.2105   11.0225 C.ar    1  UNL1        0.0759
      2 C          62.3826   88.6665   11.3559 C.ar    1  UNL1        0.0848
      3 N          63.1053   89.0857   12.6018 N.ar    1  UNL1       -0.2754
      4 C          63.6905   88.0488   13.5142 C.ar    1  UNL1        0.3341
      5 O          64.4131   88.4679   14.7600 O.2     1  UNL1       -0.2462
      6 N          63.5530   86.5928   13.1807 N.ar    1  UNL1       -0.2470
      7 C          62.8304   86.1737   11.9349 C.ar    1  UNL1        0.2657
      8 O          62.6929   84.7176   11.6014 O.2     1  UNL1       -0.2668
      9 C          61.5028   85.5390    7.5004 C.ar    1  UNL1        0.1660
     10 C          60.0773   85.9530    7.2850 C.ar    1  UNL1        0.0392
     11 C          59.3744   86.7861    8.3154 C.ar    1  UNL1        0.0033
     12 C          60.0970   87.2053    9.5613 C.ar    1  UNL1        0.0026
     13 C          61.5225   86.7913    9.7767 C.ar    1  UNL1        0.0366
     14 C          62.2254   85.9582    8.7462 C.ar    1  UNL1        0.1739
     15 F          63.6510   85.5442    8.9617 F       1  UNL1       -0.2010
     16 C          61.4186   84.0354    5.3834 C.3     1  UNL1        0.2526
     17 O          62.2057   84.7059    6.4700 O.3     1  UNL1       -0.4692
     18 C          63.2427   90.5416   12.9352 C.3     1  UNL1        0.1417
     19 C          64.4162   91.3214   12.4205 C.ar    1  UNL1        0.0555
     20 C          65.5832   91.6018   13.3202 C.ar    1  UNL1        0.1401
     21 F          65.5767   91.1024   14.7347 F       1  UNL1       -0.2044
     22 C          66.7567   92.3816   12.8055 C.ar    1  UNL1        0.0295
     23 C          66.7632   92.8810   11.3912 C.ar    1  UNL1        0.0046
     24 C          65.5962   92.6006   10.4915 C.ar    1  UNL1        0.0295
     25 C          64.4227   91.8208   11.0061 C.ar    1  UNL1        0.1401
     26 F          63.2557   91.5404   10.1064 F       1  UNL1       -0.2044
     27 C          64.1382   85.5559   14.0931 C.3     1  UNL1        0.1334
     28 C          63.2349   84.6431   14.8682 C.3     1  UNL1        0.0968
     29 N          62.5622   85.1353   16.1153 N.3     1  UNL1       -0.3172
     30 H          61.9900   84.3890   16.5102 H       1  UNL1        0.1192
     31 H          61.9699   85.9345   15.8894 H       1  UNL1        0.1192
     32 C          63.0043   83.2381   14.3963 C.ar    1  UNL1       -0.0063
     33 C          61.6798   82.5752   14.6332 C.ar    1  UNL1       -0.0029
     34 C          61.4492   81.1702   14.1612 C.ar    1  UNL1       -0.0003
     35 C          62.5431   80.4281   13.4524 C.ar    1  UNL1       -0.0000
     36 C          63.8677   81.0910   13.2154 C.ar    1  UNL1       -0.0003
     37 C          64.0983   82.4960   13.6873 C.ar    1  UNL1       -0.0029
@<TRIPOS>BOND
     1    16    17    1
     2    17     9    1
     3     9    10   ar
     4    10    11   ar
     5    11    12   ar
     6    12    13   ar
     7    13     1    1
     8     1     2   ar
     9     2     3   ar
    10     3    18    1
    11    18    19    1
    12    19    20   ar
    13    20    21    1
    14    20    22   ar
    15    22    23   ar
    16    23    24   ar
    17    24    25   ar
    18    25    26    1
    19     3     4   ar
    20     4     5    2
    21     4     6   ar
    22     6    27    1
    23    27    28    1
    24    28    29    1
    25    28    32    1
    26    32    33   ar
    27    33    34   ar
    28    34    35   ar
    29    35    36   ar
    30    36    37   ar
    31     6     7   ar
    32     7     8    2
    33    13    14   ar
    34    14    15    1
    35    14     9   ar
    36     7     1   ar
    37    25    19   ar
    38    37    32   ar
    39    29    30    1
    40    29    31    1
@<TRIPOS>MOLECULE
*****
 37 40 0 0 0
SMALL
GASTEIGER

@<TRIPOS>ATOM
      1 C          62.0049   87.0808   10.8478 C.ar    1  UNL1        0.0759
      2 C          62.5034   85.9217   11.6589 C.ar    1  UNL1        0.0848
      3 N          63.3773   86.1633   12.8539 N.ar    1  UNL1       -0.2754
      4 C          63.7527   87.5639   13.2377 C.ar    1  UNL1        0.3341
      5 O          64.6266   87.8055   14.4326 O.2     1  UNL1       -0.2462
      6 N          63.2541   88.7230   12.4265 N.ar    1  UNL1       -0.2470
      7 C          62.3802   88.4814   11.2316 C.ar    1  UNL1        0.2657
      8 O          61.8816   89.6405   10.4204 O.2     1  UNL1       -0.2668
      9 C          60.6313   85.5467    7.4552 C.ar    1  UNL1        0.1660
     10 C          59.3832   86.3561    7.2629 C.ar    1  UNL1        0.0392
     11 C          59.0090   87.4072    8.2655 C.ar    1  UNL1        0.0033
     12 C          59.8828   87.6487    9.4605 C.ar    1  UNL1        0.0026
     13 C          61.1309   86.8393    9.6528 C.ar    1  UNL1        0.0366
     14 C          61.5051   85.7882    8.6501 C.ar    1  UNL1        0.1739
     15 F          62.7533   84.9788    8.8425 F       1  UNL1       -0.2010
     16 C          62.3832   84.4815    5.8596 C.3     1  UNL1        0.2526
     17 O          61.0055   84.4957    6.4525 O.3     1  UNL1       -0.4692
     18 C          63.8759   85.0042   13.6650 C.3     1  UNL1        0.1417
     19 C          63.3220   83.6303   13.4292 C.ar    1  UNL1        0.0555
     20 C          62.3823   83.0192   14.4259 C.ar    1  UNL1        0.1401
     21 F          61.9965   83.7819   15.6586 F       1  UNL1       -0.2044
     22 C          61.8284   81.6453   14.1901 C.ar    1  UNL1        0.0295
     23 C          62.2142   80.8825   12.9575 C.ar    1  UNL1        0.0046
     24 C          63.1538   81.4937   11.9607 C.ar    1  UNL1        0.0295
     25 C          63.7077   82.8676   12.1966 C.ar    1  UNL1        0.1401
     26 F          64.6474   83.4787   11.1998 F       1  UNL1       -0.2044
     27 C          63.6295   90.1237   12.8103 C.3     1  UNL1        0.1334
     28 C          63.8049   90.4838   14.2558 C.3     1  UNL1        0.0968
     29 N          62.7584   90.0953   15.2578 N.3     1  UNL1       -0.3172
     30 H          63.0384   90.4177   16.1842 H       1  UNL1        0.1192
     31 H          62.6568   89.0804   15.2673 H       1  UNL1        0.1192
     32 C          65.0267   91.2323   14.6993 C.ar    1  UNL1       -0.0063
     33 C          65.0164   91.9825   15.9982 C.ar    1  UNL1       -0.0029
     34 C          66.2383   92.7310   16.4417 C.ar    1  UNL1       -0.0003
     35 C          67.4705   92.7294   15.5864 C.ar    1  UNL1       -0.0000
     36 C          67.4808   91.9793   14.2874 C.ar    1  UNL1       -0.0003
     37 C          66.2590   91.2307   13.8439 C.ar    1  UNL1       -0.0029
@<TRIPOS>BOND
     1    16    17    1
     2    17     9    1
     3     9    10   ar
     4    10    11   ar
     5    11    12   ar
     6    12    13   ar
     7    13     1    1
     8     1     2   ar
     9     2     3   ar
    10     3    18    1
    11    18    19    1
    12    19    20   ar
    13    20    21    1
    14    20    22   ar
    15    22    23   ar
    16    23    24   ar
    17    24    25   ar
    18    25    26    1
    19     3     4   ar
    20     4     5    2
    21     4     6   ar
    22     6    27    1
    23    27    28    1
    24    28    29    1
    25    28    32    1
    26    32    33   ar
    27    33    34   ar
    28    34    35   ar
    29    35    36   ar
    30    36    37   ar
    31     6     7   ar
    32     7     8    2
    33    13    14   ar
    34    14    15    1
    35    14     9   ar
    36     7     1   ar
    37    25    19   ar
    38    37    32   ar
    39    29    30    1
    40    29    31    1
@<TRIPOS>MOLECULE
*****
 37 40 0 0 0
SMALL
GASTEIGER

@<TRIPOS>ATOM
      1 C          62.5409   86.9607   11.0866 C.ar    1  UNL1        0.0759
      2 C          62.5998   88.4215   11.4220 C.ar    1  UNL1        0.0848
      3 N          63.1432   88.8654   12.7478 N.ar    1  UNL1       -0.2754
      4 C          63.6277   87.8484   13.7382 C.ar    1  UNL1        0.3341
      5 O          64.1711   88.2923   15.0640 O.2     1  UNL1       -0.2462
      6 N          63.5689   86.3875   13.4028 N.ar    1  UNL1       -0.2470
      7 C          63.0255   85.9437   12.0771 C.ar    1  UNL1        0.2657
      8 O          62.9666   84.4828   11.7417 O.2     1  UNL1       -0.2668
      9 C          60.1261   86.5835    7.9599 C.ar    1  UNL1        0.1660
     10 C          60.9106   85.6290    7.1093 C.ar    1  UNL1        0.0392
     11 C          62.2386   85.1184    7.5846 C.ar    1  UNL1        0.0033
     12 C          62.7820   85.5623    8.9103 C.ar    1  UNL1        0.0026
     13 C          61.9975   86.5168    9.7608 C.ar    1  UNL1        0.0366
     14 C          60.6695   87.0274    9.2856 C.ar    1  UNL1        0.1739
     15 F          59.8850   87.9819   10.1362 F       1  UNL1       -0.2010
     16 C          58.6487   88.5302    7.0780 C.3     1  UNL1        0.2526
     17 O          58.7982   87.0942    7.4847 O.3     1  UNL1       -0.4692
     18 C          63.2020   90.3262   13.0831 C.3     1  UNL1        0.1417
     19 C          64.3401   91.1654   12.5826 C.ar    1  UNL1        0.0555
     20 C          64.3077   91.7188   11.1888 C.ar    1  UNL1        0.1401
     21 F          63.1371   91.4330   10.2954 F       1  UNL1       -0.2044
     22 C          65.4458   92.5579   10.6883 C.ar    1  UNL1        0.0295
     23 C          66.6164   92.8437   11.5816 C.ar    1  UNL1        0.0046
     24 C          66.6489   92.2903   12.9754 C.ar    1  UNL1        0.0295
     25 C          65.5107   91.4512   13.4759 C.ar    1  UNL1        0.1401
     26 F          65.5432   90.8978   14.8698 F       1  UNL1       -0.2044
     27 C          64.0534   85.3706   14.3933 C.3     1  UNL1        0.1334
     28 C          63.0749   84.4570   15.0698 C.3     1  UNL1        0.0968
     29 N          62.3026   84.9363   16.2630 N.3     1  UNL1       -0.3172
     30 H          61.6890   84.1912   16.5927 H       1  UNL1        0.1192
     31 H          61.7423   85.7476   16.0019 H       1  UNL1        0.1192
     32 C          62.8686   83.0640   14.5530 C.ar    1  UNL1       -0.0063
     33 C          61.5016   82.4471   14.5845 C.ar    1  UNL1       -0.0029
     34 C          61.2953   81.0541   14.0678 C.ar    1  UNL1       -0.0003
     35 C          62.4559   80.2780   13.5196 C.ar    1  UNL1       -0.0000
     36 C          63.8229   80.8948   13.4882 C.ar    1  UNL1       -0.0003
     37 C          64.0292   82.2878   14.0049 C.ar    1  UNL1       -0.0029
@<TRIPOS>BOND
     1    16    17    1
     2    17     9    1
     3     9    10   ar
     4    10    11   ar
     5    11    12   ar
     6    12    13   ar
     7    13     1    1
     8     1     2   ar
     9     2     3   ar
    10     3    18    1
    11    18    19    1
    12    19    20   ar
    13    20    21    1
    14    20    22   ar
    15    22    23   ar
    16    23    24   ar
    17    24    25   ar
    18    25    26    1
    19     3     4   ar
    20     4     5    2
    21     4     6   ar
    22     6    27    1
    23    27    28    1
    24    28    29    1
    25    28    32    1
    26    32    33   ar
    27    33    34   ar
    28    34    35   ar
    29    35    36   ar
    30    36    37   ar
    31     6     7   ar
    32     7     8    2
    33    13    14   ar
    34    14    15    1
    35    14     9   ar
    36     7     1   ar
    37    25    19   ar
    38    37    32   ar
    39    29    30    1
    40    29    31    1
@<TRIPOS>MOLECULE
*****
 37 40 0 0 0
SMALL
GASTEIGER

@<TRIPOS>ATOM
      1 C          65.2734   92.0366   11.4091 C.ar    1  UNL1        0.0759
      2 C          63.9654   91.6225   10.8028 C.ar    1  UNL1        0.0848
      3 N          62.9327   90.9341   11.6454 N.ar    1  UNL1       -0.2754
      4 C          63.2081   90.6599   13.0941 C.ar    1  UNL1        0.3341
      5 O          62.1755   89.9716   13.9367 O.2     1  UNL1       -0.2462
      6 N          64.5162   91.0741   13.7004 N.ar    1  UNL1       -0.2470
      7 C          65.5488   91.7624   12.8578 C.ar    1  UNL1        0.2657
      8 O          66.8569   92.1765   13.4641 O.2     1  UNL1       -0.2668
      9 C          67.2115   94.8787    9.4301 C.ar    1  UNL1        0.1660
     10 C          68.3713   94.1016    8.8815 C.ar    1  UNL1        0.0392
     11 C          68.4985   92.6362    9.1755 C.ar    1  UNL1        0.0033
     12 C          67.4659   91.9478   10.0180 C.ar    1  UNL1        0.0026
     13 C          66.3061   92.7249   10.5665 C.ar    1  UNL1        0.0366
     14 C          66.1789   94.1903   10.2726 C.ar    1  UNL1        0.1739
     15 F          65.0190   94.9674   10.8212 F       1  UNL1       -0.2010
     16 C          66.4824   96.7995    7.8399 C.3     1  UNL1        0.2526
     17 O          67.0843   96.3441    9.1361 O.3     1  UNL1       -0.4692
     18 C          61.6247   90.5200   11.0391 C.3     1  UNL1        0.1417
     19 C          61.5000   89.1867   10.3634 C.ar    1  UNL1        0.0555
     20 C          62.3531   88.0367   10.8101 C.ar    1  UNL1        0.1401
     21 F          63.3311   88.2200   11.9326 F       1  UNL1       -0.2044
     22 C          62.2284   86.7033   10.1343 C.ar    1  UNL1        0.0295
     23 C          61.2505   86.5200    9.0119 C.ar    1  UNL1        0.0046
     24 C          60.3973   87.6700    8.5651 C.ar    1  UNL1        0.0295
     25 C          60.5221   89.0033    9.2409 C.ar    1  UNL1        0.1401
     26 F          59.6688   90.1533    8.7941 F       1  UNL1       -0.2044
     27 C          64.7916   90.7999   15.1492 C.3     1  UNL1        0.1334
     28 C          63.7826   90.0615   15.9777 C.3     1  UNL1        0.0968
     29 N          62.7931   90.8230   16.8092 N.3     1  UNL1       -0.3172
     30 H          62.1881   90.1672   17.3033 H       1  UNL1        0.1192
     31 H          62.2272   91.4181   16.2042 H       1  UNL1        0.1192
     32 C          63.7629   88.5617   15.9749 C.ar    1  UNL1       -0.0063
     33 C          64.4663   87.8044   14.8879 C.ar    1  UNL1       -0.0029
     34 C          64.4466   86.3045   14.8851 C.ar    1  UNL1       -0.0003
     35 C          63.7235   85.5619   15.9694 C.ar    1  UNL1       -0.0000
     36 C          63.0200   86.3192   17.0565 C.ar    1  UNL1       -0.0003
     37 C          63.0397   87.8191   17.0593 C.ar    1  UNL1       -0.0029
@<TRIPOS>BOND
     1    16    17    1
     2    17     9    1
     3     9    10   ar
     4    10    11   ar
     5    11    12   ar
     6    12    13   ar
     7    13     1    1
     8     1     2   ar
     9     2     3   ar
    10     3    18    1
    11    18    19    1
    12    19    20   ar
    13    20    21    1
    14    20    22   ar
    15    22    23   ar
    16    23    24   ar
    17    24    25   ar
    18    25    26    1
    19     3     4   ar
    20     4     5    2
    21     4     6   ar
    22     6    27    1
    23    27    28    1
    24    28    29    1
    25    28    32    1
    26    32    33   ar
    27    33    34   ar
    28    34    35   ar
    29    35    36   ar
    30    36    37   ar
    31     6     7   ar
    32     7     8    2
    33    13    14   ar
    34    14    15    1
    35    14     9   ar
    36     7     1   ar
    37    25    19   ar
    38    37    32   ar
    39    29    30    1
    40    29    31    1
@<TRIPOS>MOLECULE
*****
 37 40 0 0 0
SMALL
GASTEIGER

@<TRIPOS>ATOM
      1 C          63.9066   89.8975   13.6648 C.ar    1  UNL1        0.0759
      2 C          64.9224   90.9989   13.7367 C.ar    1  UNL1        0.0848
      3 N          65.1257   91.9095   12.5621 N.ar    1  UNL1       -0.2754
      4 C          64.3131   91.7187   11.3157 C.ar    1  UNL1        0.3341
      5 O          64.5164   92.6292   10.1412 O.2     1  UNL1       -0.2462
      6 N          63.2973   90.6173   11.2440 N.ar    1  UNL1       -0.2470
      7 C          63.0941   89.7067   12.4185 C.ar    1  UNL1        0.2657
      8 O          62.0782   88.6053   12.3467 O.2     1  UNL1       -0.2668
      9 C          63.7660   86.6064   15.8781 C.ar    1  UNL1        0.1660
     10 C          63.2968   87.1657   17.1884 C.ar    1  UNL1        0.0392
     11 C          63.0308   88.6357   17.3242 C.ar    1  UNL1        0.0033
     12 C          63.2341   89.5463   16.1497 C.ar    1  UNL1        0.0026
     13 C          63.7033   88.9869   14.8394 C.ar    1  UNL1        0.0366
     14 C          63.9693   87.5170   14.7036 C.ar    1  UNL1        0.1739
     15 F          64.4385   86.9576   13.3933 F       1  UNL1       -0.2010
     16 C          62.9178   84.2039   15.3694 C.3     1  UNL1        0.2526
     17 O          64.0320   85.1364   15.7423 O.3     1  UNL1       -0.4692
     18 C          66.1415   93.0108   12.6339 C.3     1  UNL1        0.1417
     19 C          66.8021   93.5047   11.3810 C.ar    1  UNL1        0.0555
     20 C          66.5171   94.8889   10.8785 C.ar    1  UNL1        0.1401
     21 F          65.5714   95.7794   11.6288 F       1  UNL1       -0.2044
     22 C          67.1777   95.3828    9.6256 C.ar    1  UNL1        0.0295
     23 C          68.1233   94.4925    8.8753 C.ar    1  UNL1        0.0046
     24 C          68.4083   93.1082    9.3778 C.ar    1  UNL1        0.0295
     25 C          67.7476   92.6143   10.6307 C.ar    1  UNL1        0.1401
     26 F          68.0327   91.2300   11.1332 F       1  UNL1       -0.2044
     27 C          62.4847   90.4265    9.9976 C.3     1  UNL1        0.1334
     28 C          61.1307   89.7860   10.0758 C.3     1  UNL1        0.0968
     29 N          60.0581   90.4008   10.9254 N.3     1  UNL1       -0.3172
     30 H          59.2095   89.8384   10.8614 H       1  UNL1        0.1192
     31 H          59.8646   91.3468   10.5967 H       1  UNL1        0.1192
     32 C          60.8491   88.5307    9.3045 C.ar    1  UNL1       -0.0063
     33 C          61.8157   87.3850    9.3577 C.ar    1  UNL1       -0.0029
     34 C          61.5341   86.1296    8.5864 C.ar    1  UNL1       -0.0003
     35 C          60.2859   86.0200    7.7619 C.ar    1  UNL1       -0.0000
     36 C          59.3191   87.1658    7.7087 C.ar    1  UNL1       -0.0003
     37 C          59.6007   88.4211    8.4800 C.ar    1  UNL1       -0.0029
@<TRIPOS>BOND
     1    16    17    1
     2    17     9    1
     3     9    10   ar
     4    10    11   ar
     5    11    12   ar
     6    12    13   ar
     7    13     1    1
     8     1     2   ar
     9     2     3   ar
    10     3    18    1
    11    18    19    1
    12    19    20   ar
    13    20    21    1
    14    20    22   ar
    15    22    23   ar
    16    23    24   ar
    17    24    25   ar
    18    25    26    1
    19     3     4   ar
    20     4     5    2
    21     4     6   ar
    22     6    27    1
    23    27    28    1
    24    28    29    1
    25    28    32    1
    26    32    33   ar
    27    33    34   ar
    28    34    35   ar
    29    35    36   ar
    30    36    37   ar
    31     6     7   ar
    32     7     8    2
    33    13    14   ar
    34    14    15    1
    35    14     9   ar
    36     7     1   ar
    37    25    19   ar
    38    37    32   ar
    39    29    30    1
    40    29    31    1
@<TRIPOS>MOLECULE
*****
 37 40 0 0 0
SMALL
GASTEIGER

@<TRIPOS>ATOM
      1 C          61.8503   87.7830   10.7787 C.ar    1  UNL1        0.0759
      2 C          62.1320   89.1136   11.4111 C.ar    1  UNL1        0.0848
      3 N          63.0044   89.1957   12.6286 N.ar    1  UNL1       -0.2754
      4 C          63.5950   87.9471   13.2136 C.ar    1  UNL1        0.3341
      5 O          64.4674   88.0291   14.4311 O.2     1  UNL1       -0.2462
      6 N          63.3132   86.6164   12.5811 N.ar    1  UNL1       -0.2470
      7 C          62.4409   86.5344   11.3637 C.ar    1  UNL1        0.2657
      8 O          62.1591   85.2038   10.7311 O.2     1  UNL1       -0.2668
      9 C          59.6172   88.8749    7.6849 C.ar    1  UNL1        0.1660
     10 C          59.2332   87.5369    7.1262 C.ar    1  UNL1        0.0392
     11 C          59.7216   86.2809    7.7850 C.ar    1  UNL1        0.0033
     12 C          60.5939   86.3629    9.0025 C.ar    1  UNL1        0.0026
     13 C          60.9779   87.7009    9.5611 C.ar    1  UNL1        0.0366
     14 C          60.4896   88.9569    8.9024 C.ar    1  UNL1        0.1739
     15 F          60.8736   90.2950    9.4611 F       1  UNL1       -0.2010
     16 C          58.8812   90.1545    5.5469 C.3     1  UNL1        0.2526
     17 O          59.1289   90.1309    7.0261 O.3     1  UNL1       -0.4692
     18 C          63.2862   90.5263   13.2611 C.3     1  UNL1        0.1417
     19 C          64.4920   91.3148   12.8438 C.ar    1  UNL1        0.0555
     20 C          65.6229   91.5220   13.8071 C.ar    1  UNL1        0.1401
     21 F          65.5479   90.9407   15.1880 F       1  UNL1       -0.2044
     22 C          66.8287   92.3105   13.3898 C.ar    1  UNL1        0.0295
     23 C          66.9037   92.8918   12.0091 C.ar    1  UNL1        0.0046
     24 C          65.7729   92.6846   11.0457 C.ar    1  UNL1        0.0295
     25 C          64.5670   91.8961   11.4630 C.ar    1  UNL1        0.1401
     26 F          63.4361   91.6889   10.4996 F       1  UNL1       -0.2044
     27 C          63.9038   85.3679   13.1661 C.3     1  UNL1        0.1334
     28 C          63.0920   84.5207   14.1005 C.3     1  UNL1        0.0968
     29 N          62.5794   85.1010   15.3853 N.3     1  UNL1       -0.3172
     30 H          62.0520   84.3905   15.8928 H       1  UNL1        0.1192
     31 H          61.9719   85.8945   15.1815 H       1  UNL1        0.1192
     32 C          62.7928   83.0932   13.7503 C.ar    1  UNL1       -0.0063
     33 C          63.5167   82.4318   12.6152 C.ar    1  UNL1       -0.0029
     34 C          63.2175   81.0043   12.2649 C.ar    1  UNL1       -0.0003
     35 C          62.1943   80.2381   13.0498 C.ar    1  UNL1       -0.0000
     36 C          61.4703   80.8995   14.1850 C.ar    1  UNL1       -0.0003
     37 C          61.7696   82.3270   14.5352 C.ar    1  UNL1       -0.0029
@<TRIPOS>BOND
     1    16    17    1
     2    17     9    1
     3     9    10   ar
     4    10    11   ar
     5    11    12   ar
     6    12    13   ar
     7    13     1    1
     8     1     2   ar
     9     2     3   ar
    10     3    18    1
    11    18    19    1
    12    19    20   ar
    13    20    21    1
    14    20    22   ar
    15    22    23   ar
    16    23    24   ar
    17    24    25   ar
    18    25    26    1
    19     3     4   ar
    20     4     5    2
    21     4     6   ar
    22     6    27    1
    23    27    28    1
    24    28    29    1
    25    28    32    1
    26    32    33   ar
    27    33    34   ar
    28    34    35   ar
    29    35    36   ar
    30    36    37   ar
    31     6     7   ar
    32     7     8    2
    33    13    14   ar
    34    14    15    1
    35    14     9   ar
    36     7     1   ar
    37    25    19   ar
    38    37    32   ar
    39    29    30    1
    40    29    31    1
@<TRIPOS>MOLECULE
*****
 37 40 0 0 0
SMALL
GASTEIGER

@<TRIPOS>ATOM
      1 C          62.4268   87.2747   11.0618 C.ar    1  UNL1        0.0759
      2 C          62.9173   86.1775   11.9593 C.ar    1  UNL1        0.0848
      3 N          63.5697   86.5139   13.2675 N.ar    1  UNL1       -0.2754
      4 C          63.7315   87.9475   13.6781 C.ar    1  UNL1        0.3341
      5 O          64.3839   88.2839   14.9862 O.2     1  UNL1       -0.2462
      6 N          63.2410   89.0447   12.7805 N.ar    1  UNL1       -0.2470
      7 C          62.5886   88.7083   11.4724 C.ar    1  UNL1        0.2657
      8 O          62.0981   89.8055   10.5748 O.2     1  UNL1       -0.2668
      9 C          59.8590   87.2998    8.0359 C.ar    1  UNL1        0.1660
     10 C          60.4697   86.2656    7.1373 C.ar    1  UNL1        0.0392
     11 C          61.7328   85.5678    7.5468 C.ar    1  UNL1        0.0033
     12 C          62.3851   85.9042    8.8550 C.ar    1  UNL1        0.0026
     13 C          61.7744   86.9383    9.7536 C.ar    1  UNL1        0.0366
     14 C          60.5114   87.6361    9.3441 C.ar    1  UNL1        0.1739
     15 F          59.9007   88.6703   10.2428 F       1  UNL1       -0.2010
     16 C          58.6607   89.2109    6.7470 C.3     1  UNL1        0.2526
     17 O          58.5959   87.9976    7.6264 O.3     1  UNL1       -0.4692
     18 C          64.0602   85.4167   14.1650 C.3     1  UNL1        0.1417
     19 C          63.5660   84.0135   13.9732 C.ar    1  UNL1        0.0555
     20 C          62.4874   83.4701   14.8627 C.ar    1  UNL1        0.1401
     21 F          61.9030   84.3298   15.9440 F       1  UNL1       -0.2044
     22 C          61.9932   82.0669   14.6708 C.ar    1  UNL1        0.0295
     23 C          62.5776   81.2071   13.5895 C.ar    1  UNL1        0.0046
     24 C          63.6562   81.7506   12.7000 C.ar    1  UNL1        0.0295
     25 C          64.1504   83.1538   12.8919 C.ar    1  UNL1        0.1401
     26 F          65.2291   83.6972   12.0023 F       1  UNL1       -0.2044
     27 C          63.4028   90.4783   13.1911 C.3     1  UNL1        0.1334
     28 C          64.5713   91.2745   12.6906 C.3     1  UNL1        0.0968
     29 N          64.6517   91.6594   11.2430 N.3     1  UNL1       -0.3172
     30 H          65.5053   92.1936   11.0801 H       1  UNL1        0.1192
     31 H          63.8421   92.2289   10.9971 H       1  UNL1        0.1192
     32 C          65.6594   91.6859   13.6376 C.ar    1  UNL1       -0.0063
     33 C          67.0672   91.8369   13.1424 C.ar    1  UNL1       -0.0029
     34 C          68.1553   92.2483   14.0894 C.ar    1  UNL1       -0.0003
     35 C          67.8357   92.5086   15.5316 C.ar    1  UNL1       -0.0000
     36 C          66.4278   92.3576   16.0268 C.ar    1  UNL1       -0.0003
     37 C          65.3397   91.9462   15.0799 C.ar    1  UNL1       -0.0029
@<TRIPOS>BOND
     1    16    17    1
     2    17     9    1
     3     9    10   ar
     4    10    11   ar
     5    11    12   ar
     6    12    13   ar
     7    13     1    1
     8     1     2   ar
     9     2     3   ar
    10     3    18    1
    11    18    19    1
    12    19    20   ar
    13    20    21    1
    14    20    22   ar
    15    22    23   ar
    16    23    24   ar
    17    24    25   ar
    18    25    26    1
    19     3     4   ar
    20     4     5    2
    21     4     6   ar
    22     6    27    1
    23    27    28    1
    24    28    29    1
    25    28    32    1
    26    32    33   ar
    27    33    34   ar
    28    34    35   ar
    29    35    36   ar
    30    36    37   ar
    31     6     7   ar
    32     7     8    2
    33    13    14   ar
    34    14    15    1
    35    14     9   ar
    36     7     1   ar
    37    25    19   ar
    38    37    32   ar
    39    29    30    1
    40    29    31    1
@<TRIPOS>MOLECULE
*****
 37 40 0 0 0
SMALL
GASTEIGER

@<TRIPOS>ATOM
      1 C          63.4084   85.7122   12.7682 C.ar    1  UNL1        0.0759
      2 C          62.8412   86.3880   11.5551 C.ar    1  UNL1        0.0848
      3 N          62.8573   87.8845   11.4539 N.ar    1  UNL1       -0.2754
      4 C          63.4406   88.7052   12.5658 C.ar    1  UNL1        0.3341
      5 O          63.4566   90.2017   12.4647 O.2     1  UNL1       -0.2462
      6 N          64.0078   88.0293   13.7789 N.ar    1  UNL1       -0.2470
      7 C          63.9917   86.5329   13.8801 C.ar    1  UNL1        0.2657
      8 O          64.5590   85.8570   15.0932 O.2     1  UNL1       -0.2668
      9 C          62.3865   82.0388   13.8692 C.ar    1  UNL1        0.1660
     10 C          63.3602   81.2227   13.0719 C.ar    1  UNL1        0.0392
     11 C          64.3500   81.9031   12.1734 C.ar    1  UNL1        0.0033
     12 C          64.3661   83.3995   12.0721 C.ar    1  UNL1        0.0026
     13 C          63.3924   84.2156   12.8694 C.ar    1  UNL1        0.0366
     14 C          62.4025   83.5353   13.7679 C.ar    1  UNL1        0.1739
     15 F          61.4288   84.3515   14.5652 F       1  UNL1       -0.2010
     16 C          60.2959   80.5276   14.1780 C.3     1  UNL1        0.2526
     17 O          61.3966   81.3585   14.7677 O.3     1  UNL1       -0.4692
     18 C          62.2901   88.5603   10.2409 C.3     1  UNL1        0.1417
     19 C          61.3231   87.8286    9.3580 C.ar    1  UNL1        0.0555
     20 C          61.7866   86.6521    8.5512 C.ar    1  UNL1        0.1401
     21 F          63.2171   86.2073    8.6272 F       1  UNL1       -0.2044
     22 C          60.8196   85.9204    7.6683 C.ar    1  UNL1        0.0295
     23 C          59.3891   86.3652    7.5922 C.ar    1  UNL1        0.0046
     24 C          58.9256   87.5417    8.3990 C.ar    1  UNL1        0.0295
     25 C          59.8926   88.2734    9.2819 C.ar    1  UNL1        0.1401
     26 F          59.4290   89.4499   10.0887 F       1  UNL1       -0.2044
     27 C          64.5911   88.8500   14.8908 C.3     1  UNL1        0.1334
     28 C          64.3754   90.3341   14.9204 C.3     1  UNL1        0.0968
     29 N          62.9826   90.8886   14.9754 N.3     1  UNL1       -0.3172
     30 H          63.0228   91.9077   14.9894 H       1  UNL1        0.1192
     31 H          62.5170   90.5550   15.8194 H       1  UNL1        0.1192
     32 C          65.5523   91.2637   14.8949 C.ar    1  UNL1       -0.0063
     33 C          66.4567   91.2961   13.6987 C.ar    1  UNL1       -0.0029
     34 C          67.6336   92.2258   13.6733 C.ar    1  UNL1       -0.0003
     35 C          67.9061   93.1230   14.8440 C.ar    1  UNL1       -0.0000
     36 C          67.0017   93.0906   16.0403 C.ar    1  UNL1       -0.0003
     37 C          65.8248   92.1610   16.0658 C.ar    1  UNL1       -0.0029
@<TRIPOS>BOND
     1    16    17    1
     2    17     9    1
     3     9    10   ar
     4    10    11   ar
     5    11    12   ar
     6    12    13   ar
     7    13     1    1
     8     1     2   ar
     9     2     3   ar
    10     3    18    1
    11    18    19    1
    12    19    20   ar
    13    20    21    1
    14    20    22   ar
    15    22    23   ar
    16    23    24   ar
    17    24    25   ar
    18    25    26    1
    19     3     4   ar
    20     4     5    2
    21     4     6   ar
    22     6    27    1
    23    27    28    1
    24    28    29    1
    25    28    32    1
    26    32    33   ar
    27    33    34   ar
    28    34    35   ar
    29    35    36   ar
    30    36    37   ar
    31     6     7   ar
    32     7     8    2
    33    13    14   ar
    34    14    15    1
    35    14     9   ar
    36     7     1   ar
    37    25    19   ar
    38    37    32   ar
    39    29    30    1
    40    29    31    1
@<TRIPOS>MOLECULE
*****
 37 40 0 0 0
SMALL
GASTEIGER

@<TRIPOS>ATOM
      1 C          63.0531   85.7875   12.8571 C.ar    1  UNL1        0.0759
      2 C          62.5565   86.4608   11.6121 C.ar    1  UNL1        0.0848
      3 N          62.7747   87.9320   11.4170 N.ar    1  UNL1       -0.2754
      4 C          63.4896   88.7299   12.4669 C.ar    1  UNL1        0.3341
      5 O          63.7079   90.2010   12.2719 O.2     1  UNL1       -0.2462
      6 N          63.9862   88.0565   13.7120 N.ar    1  UNL1       -0.2470
      7 C          63.7679   86.5854   13.9071 C.ar    1  UNL1        0.2657
      8 O          64.2645   85.9121   15.1521 O.2     1  UNL1       -0.2668
      9 C          62.8781   81.8921   12.1189 C.ar    1  UNL1        0.1660
     10 C          62.3984   81.3741   13.4423 C.ar    1  UNL1        0.0392
     11 C          62.1368   82.3272   14.5707 C.ar    1  UNL1        0.0033
     12 C          62.3551   83.7983   14.3756 C.ar    1  UNL1        0.0026
     13 C          62.8348   84.3163   13.0522 C.ar    1  UNL1        0.0366
     14 C          63.0964   83.3632   11.9239 C.ar    1  UNL1        0.1739
     15 F          63.5762   83.8813   10.6004 F       1  UNL1       -0.2010
     16 C          62.7510   79.4962   11.1221 C.3     1  UNL1        0.2526
     17 O          63.1397   80.9390   10.9906 O.3     1  UNL1       -0.4692
     18 C          62.2781   88.6053   10.1720 C.3     1  UNL1        0.1417
     19 C          61.2815   87.9120    9.2911 C.ar    1  UNL1        0.0555
     20 C          59.9087   88.4896    9.1126 C.ar    1  UNL1        0.1401
     21 F          59.5326   89.7605    9.8152 F       1  UNL1       -0.2044
     22 C          58.9120   87.7964    8.2317 C.ar    1  UNL1        0.0295
     23 C          59.2881   86.5256    7.5292 C.ar    1  UNL1        0.0046
     24 C          60.6608   85.9480    7.7076 C.ar    1  UNL1        0.0295
     25 C          61.6575   86.6412    8.5885 C.ar    1  UNL1        0.1401
     26 F          63.0304   86.0636    8.7670 F       1  UNL1       -0.2044
     27 C          64.7010   88.8544   14.7619 C.3     1  UNL1        0.1334
     28 C          64.4770   90.3342   14.8615 C.3     1  UNL1        0.0968
     29 N          63.0805   90.8795   14.9145 N.3     1  UNL1       -0.3172
     30 H          63.1150   91.8967   14.9805 H       1  UNL1        0.1192
     31 H          62.5988   90.5019   15.7305 H       1  UNL1        0.1192
     32 C          65.6493   91.2688   14.9080 C.ar    1  UNL1       -0.0063
     33 C          66.6439   91.2809   13.7852 C.ar    1  UNL1       -0.0029
     34 C          67.8162   92.2155   13.8318 C.ar    1  UNL1       -0.0003
     35 C          67.9939   93.1381   15.0010 C.ar    1  UNL1       -0.0000
     36 C          66.9993   93.1261   16.1238 C.ar    1  UNL1       -0.0003
     37 C          65.8270   92.1915   16.0773 C.ar    1  UNL1       -0.0029
@<TRIPOS>BOND
     1    16    17    1
     2    17     9    1
     3     9    10   ar
     4    10    11   ar
     5    11    12   ar
     6    12    13   ar
     7    13     1    1
     8     1     2   ar
     9     2     3   ar
    10     3    18    1
    11    18    19    1
    12    19    20   ar
    13    20    21    1
    14    20    22   ar
    15    22    23   ar
    16    23    24   ar
    17    24    25   ar
    18    25    26    1
    19     3     4   ar
    20     4     5    2
    21     4     6   ar
    22     6    27    1
    23    27    28    1
    24    28    29    1
    25    28    32    1
    26    32    33   ar
    27    33    34   ar
    28    34    35   ar
    29    35    36   ar
    30    36    37   ar
    31     6     7   ar
    32     7     8    2
    33    13    14   ar
    34    14    15    1
    35    14     9   ar
    36     7     1   ar
    37    25    19   ar
    38    37    32   ar
    39    29    30    1
    40    29    31    1
