@<TRIPOS>MOLECULE
*****
 38 41 0 0 0
SMALL
GASTEIGER

@<TRIPOS>ATOM
      1 N          61.6077   89.0625   10.3463 N.pl3   1  UNL1       -0.3043
      2 C          62.9825   89.5360    9.9782 C.3     1  UNL1        0.1123
      3 C          63.8243   90.2547   10.9905 C.3     1  UNL1        0.1149
      4 N          63.2912   90.4999   12.3711 N.am    1  UNL1       -0.2747
      5 C          64.1330   91.2186   13.3834 C.2     1  UNL1        0.2442
      6 O          63.6000   91.4637   14.7638 O.2     1  UNL1       -0.2731
      7 C          61.9164   90.0263   12.7392 C.3     1  UNL1        0.1149
      8 C          61.0746   89.3076   11.7268 C.3     1  UNL1        0.1123
      9 C          60.9466   86.8704    9.1183 C.ar    1  UNL1        0.0051
     10 C          60.1049   86.1518    8.1059 C.ar    1  UNL1       -0.0018
     11 C          59.0823   86.9065    7.3092 C.ar    1  UNL1       -0.0002
     12 C          58.9015   88.3798    7.5248 C.ar    1  UNL1        0.0012
     13 C          59.7433   89.0985    8.5372 C.ar    1  UNL1        0.0142
     14 C          60.7659   88.3438    9.3339 C.ar    1  UNL1        0.0451
     15 C          61.9692   86.1157    9.9150 C.3     1  UNL1        0.0748
     16 N          63.1747   85.5392    9.2337 N.3     1  UNL1       -0.3188
     17 H          63.7587   85.0632    9.9213 H       1  UNL1        0.1191
     18 H          63.7087   86.2894    8.7952 H       1  UNL1        0.1191
     19 C          61.7862   85.9376   11.3931 C.3     1  UNL1        0.0201
     20 C          62.7032   83.5334   11.7531 C.3     1  UNL1        0.0001
     21 C          62.6608   84.9802   12.1471 C.3     1  UNL1        0.0017
     22 C          63.4931   85.4696   13.2951 C.3     1  UNL1        0.0001
     23 C          65.5079   91.6921   13.0152 C.3     1  UNL1        0.1564
     24 N          66.4515   92.1589   14.0837 N.am    1  UNL1       -0.2727
     25 C          66.0628   92.7439   15.4092 C.3     1  UNL1        0.0943
     26 C          67.3205   93.0692   16.1591 C.3     1  UNL1        0.0311
     27 C          68.4866   92.6853   15.2971 C.3     1  UNL1        0.0870
     28 C          67.9494   92.1227   14.0144 C.2     1  UNL1        0.2260
     29 O          68.7668   91.6134   12.8645 O.2     1  UNL1       -0.2749
     30 C          65.9391   91.6989   11.5786 C.3     1  UNL1        0.0564
     31 C          66.3379   92.9869   10.9213 C.ar    1  UNL1       -0.0094
     32 C          65.6745   94.2708   11.3231 C.ar    1  UNL1       -0.0025
     33 C          66.0732   95.5588   10.6659 C.ar    1  UNL1        0.0111
     34 C          67.1353   95.5629    9.6067 C.ar    1  UNL1        0.0585
     35 CL         67.5341   96.8509    8.9494 Cl      1  UNL1       -0.0822
     36 C          67.7988   94.2790    9.2049 C.ar    1  UNL1        0.0225
     37 C          67.4001   92.9910    9.8622 C.ar    1  UNL1        0.0546
     38 CL         68.0635   91.7071    9.4603 Cl      1  UNL1       -0.0825
@<TRIPOS>BOND
     1    20    21    1
     2    21    22    1
     3    21    19    1
     4    19    15    1
     5    15    16    1
     6    15     9    1
     7     9    10   ar
     8    10    11   ar
     9    11    12   ar
    10    12    13   ar
    11    13    14   ar
    12    14     1    1
    13     1     2    1
    14     2     3    1
    15     3     4    1
    16     4     5   am
    17     5     6    2
    18     5    23    1
    19    23    30    1
    20    30    31    1
    21    31    32   ar
    22    32    33   ar
    23    33    34   ar
    24    34    35    1
    25    34    36   ar
    26    36    37   ar
    27    37    38    1
    28    23    24    1
    29    24    25    1
    30    25    26    1
    31    26    27    1
    32    27    28    1
    33    28    29    2
    34     4     7    1
    35     7     8    1
    36    14     9   ar
    37     8     1    1
    38    37    31   ar
    39    28    24   am
    40    16    17    1
    41    16    18    1
@<TRIPOS>MOLECULE
*****
 38 41 0 0 0
SMALL
GASTEIGER

@<TRIPOS>ATOM
      1 N          64.4209   91.0226   13.0843 N.pl3   1  UNL1       -0.3043
      2 C          64.3702   89.5266   13.1812 C.3     1  UNL1        0.1123
      3 C          63.5094   88.7425   12.2356 C.3     1  UNL1        0.1149
      4 N          62.6992   89.4544   11.1931 N.am    1  UNL1       -0.2747
      5 C          61.8383   88.6703   10.2475 C.2     1  UNL1        0.2442
      6 O          61.0282   89.3823    9.2051 O.2     1  UNL1       -0.2731
      7 C          62.7498   90.9504   11.0962 C.3     1  UNL1        0.1149
      8 C          63.6107   91.7345   12.0418 C.3     1  UNL1        0.1123
      9 C          66.3552   92.7077   13.4953 C.ar    1  UNL1        0.0051
     10 C          67.2160   93.4917   14.4410 C.ar    1  UNL1       -0.0018
     11 C          67.0034   93.3747   15.9212 C.ar    1  UNL1       -0.0002
     12 C          65.9299   92.4738   16.4558 C.ar    1  UNL1        0.0012
     13 C          65.0691   91.6897   15.5102 C.ar    1  UNL1        0.0142
     14 C          65.2818   91.8067   14.0299 C.ar    1  UNL1        0.0451
     15 C          66.5679   92.8246   12.0151 C.3     1  UNL1        0.0748
     16 N          67.5930   91.9667   11.3346 N.3     1  UNL1       -0.3188
     17 H          67.6033   92.1764   10.3364 H       1  UNL1        0.1191
     18 H          67.3596   90.9835   11.4731 H       1  UNL1        0.1191
     19 C          65.7555   93.7994   11.2154 C.3     1  UNL1        0.0201
     20 C          67.2906   95.1202    9.5878 C.3     1  UNL1        0.0001
     21 C          66.3653   95.0949   10.7682 C.3     1  UNL1        0.0017
     22 C          66.0499   96.3649   11.5013 C.3     1  UNL1        0.0001
     23 C          61.7876   87.1743   10.3444 C.3     1  UNL1        0.1564
     24 N          61.8331   86.3401    9.0987 N.am    1  UNL1       -0.2727
     25 C          63.0388   85.6324    8.5549 C.3     1  UNL1        0.0943
     26 C          62.6317   84.9220    7.2981 C.3     1  UNL1        0.0311
     27 C          61.1744   85.1905    7.0651 C.3     1  UNL1        0.0870
     28 C          60.6809   86.0670    8.1779 C.2     1  UNL1        0.2260
     29 O          59.2809   86.5802    8.3413 O.2     1  UNL1       -0.2749
     30 C          61.6915   86.5126   11.6871 C.3     1  UNL1        0.0564
     31 C          62.4223   85.2280   11.9442 C.ar    1  UNL1       -0.0094
     32 C          62.1606   84.0303   11.0800 C.ar    1  UNL1       -0.0025
     33 C          62.8913   82.7459   11.3370 C.ar    1  UNL1        0.0111
     34 C          63.8838   82.6591   12.4584 C.ar    1  UNL1        0.0585
     35 CL         64.6146   81.3746   12.7155 Cl      1  UNL1       -0.0822
     36 C          64.1455   83.8568   13.3226 C.ar    1  UNL1        0.0225
     37 C          63.4148   85.1413   13.0656 C.ar    1  UNL1        0.0546
     38 CL         63.6765   86.3390   13.9298 Cl      1  UNL1       -0.0825
@<TRIPOS>BOND
     1    20    21    1
     2    21    22    1
     3    21    19    1
     4    19    15    1
     5    15    16    1
     6    15     9    1
     7     9    10   ar
     8    10    11   ar
     9    11    12   ar
    10    12    13   ar
    11    13    14   ar
    12    14     1    1
    13     1     2    1
    14     2     3    1
    15     3     4    1
    16     4     5   am
    17     5     6    2
    18     5    23    1
    19    23    30    1
    20    30    31    1
    21    31    32   ar
    22    32    33   ar
    23    33    34   ar
    24    34    35    1
    25    34    36   ar
    26    36    37   ar
    27    37    38    1
    28    23    24    1
    29    24    25    1
    30    25    26    1
    31    26    27    1
    32    27    28    1
    33    28    29    2
    34     4     7    1
    35     7     8    1
    36    14     9   ar
    37     8     1    1
    38    37    31   ar
    39    28    24   am
    40    16    17    1
    41    16    18    1
@<TRIPOS>MOLECULE
*****
 38 41 0 0 0
SMALL
GASTEIGER

@<TRIPOS>ATOM
      1 N          61.5394   86.5147    9.5756 N.pl3   1  UNL1       -0.3043
      2 C          61.2869   86.1615   11.0114 C.3     1  UNL1        0.1123
      3 C          62.1188   85.1090   11.6822 C.3     1  UNL1        0.1149
      4 N          63.2031   84.4095   10.9173 N.am    1  UNL1       -0.2747
      5 C          64.0349   83.3570   11.5882 C.2     1  UNL1        0.2442
      6 O          65.1192   82.6576   10.8232 O.2     1  UNL1       -0.2731
      7 C          63.4556   84.7627    9.4815 C.3     1  UNL1        0.1149
      8 C          62.6237   85.8154    8.8106 C.3     1  UNL1        0.1123
      9 C          60.6276   88.9461    9.4901 C.ar    1  UNL1        0.0051
     10 C          59.7958   89.9986    8.8192 C.ar    1  UNL1       -0.0018
     11 C          59.0438   89.6725    7.5630 C.ar    1  UNL1       -0.0002
     12 C          59.1236   88.2938    6.9776 C.ar    1  UNL1        0.0012
     13 C          59.9555   87.2412    7.6485 C.ar    1  UNL1        0.0142
     14 C          60.7075   87.5674    8.9047 C.ar    1  UNL1        0.0451
     15 C          61.3796   89.2723   10.7463 C.3     1  UNL1        0.0748
     16 N          60.6451   89.4034   12.0475 N.3     1  UNL1       -0.3188
     17 H          61.3072   89.6261   12.7908 H       1  UNL1        0.1191
     18 H          60.1752   88.5241   12.2629 H       1  UNL1        0.1191
     19 C          62.8662   89.4673   10.7014 C.3     1  UNL1        0.0201
     20 C          63.8680   91.8461   10.4054 C.3     1  UNL1        0.0001
     21 C          63.4790   90.7016   11.2936 C.3     1  UNL1        0.0017
     22 C          63.7027   90.7916   12.7741 C.3     1  UNL1        0.0001
     23 C          63.7825   83.0037   13.0240 C.3     1  UNL1        0.1564
     24 N          62.6811   82.0494   13.3791 N.am    1  UNL1       -0.2727
     25 C          61.6421   82.2577   14.4408 C.3     1  UNL1        0.0943
     26 C          60.7442   81.0562   14.4527 C.3     1  UNL1        0.0311
     27 C          61.2282   80.1052   13.3984 C.3     1  UNL1        0.0870
     28 C          62.4254   80.7191   12.7349 C.2     1  UNL1        0.2260
     29 O          63.2260   80.1097   11.6224 O.2     1  UNL1       -0.2749
     30 C          64.6314   83.6049   14.1046 C.3     1  UNL1        0.0564
     31 C          64.2617   84.9322   14.6977 C.ar    1  UNL1       -0.0094
     32 C          64.7235   86.2007   14.0437 C.ar    1  UNL1       -0.0025
     33 C          64.3539   87.5279   14.6367 C.ar    1  UNL1        0.0111
     34 C          63.5224   87.5867   15.8837 C.ar    1  UNL1        0.0585
     35 CL         63.1527   88.9140   16.4768 Cl      1  UNL1       -0.0822
     36 C          63.0605   86.3183   16.5378 C.ar    1  UNL1        0.0225
     37 C          63.4302   84.9910   15.9447 C.ar    1  UNL1        0.0546
     38 CL         62.9683   83.7226   16.5988 Cl      1  UNL1       -0.0825
@<TRIPOS>BOND
     1    20    21    1
     2    21    22    1
     3    21    19    1
     4    19    15    1
     5    15    16    1
     6    15     9    1
     7     9    10   ar
     8    10    11   ar
     9    11    12   ar
    10    12    13   ar
    11    13    14   ar
    12    14     1    1
    13     1     2    1
    14     2     3    1
    15     3     4    1
    16     4     5   am
    17     5     6    2
    18     5    23    1
    19    23    30    1
    20    30    31    1
    21    31    32   ar
    22    32    33   ar
    23    33    34   ar
    24    34    35    1
    25    34    36   ar
    26    36    37   ar
    27    37    38    1
    28    23    24    1
    29    24    25    1
    30    25    26    1
    31    26    27    1
    32    27    28    1
    33    28    29    2
    34     4     7    1
    35     7     8    1
    36    14     9   ar
    37     8     1    1
    38    37    31   ar
    39    28    24   am
    40    16    17    1
    41    16    18    1
@<TRIPOS>MOLECULE
*****
 38 41 0 0 0
SMALL
GASTEIGER

@<TRIPOS>ATOM
      1 N          61.6973   89.4559    9.9781 N.pl3   1  UNL1       -0.3043
      2 C          61.8592   89.0907   11.4239 C.3     1  UNL1        0.1123
      3 C          62.8121   89.8603   12.2896 C.3     1  UNL1        0.1149
      4 N          63.6032   90.9952   11.7095 N.am    1  UNL1       -0.2747
      5 C          64.5561   91.7648   12.5753 C.2     1  UNL1        0.2442
      6 O          65.3471   92.8996   11.9952 O.2     1  UNL1       -0.2731
      7 C          63.4413   91.3603   10.2637 C.3     1  UNL1        0.1149
      8 C          62.4883   90.5906    9.3979 C.3     1  UNL1        0.1123
      9 C          60.6934   87.1896    9.1993 C.ar    1  UNL1        0.0051
     10 C          59.7405   86.4200    8.3336 C.ar    1  UNL1       -0.0018
     11 C          58.8384   87.1469    7.3809 C.ar    1  UNL1       -0.0002
     12 C          58.8892   88.6435    7.2938 C.ar    1  UNL1        0.0012
     13 C          59.8422   89.4131    8.1595 C.ar    1  UNL1        0.0142
     14 C          60.7443   88.6861    9.1123 C.ar    1  UNL1        0.0451
     15 C          61.5955   86.4626   10.1521 C.3     1  UNL1        0.0748
     16 N          61.1144   86.1274   11.5327 N.3     1  UNL1       -0.3188
     17 H          61.8513   85.6374   12.0399 H       1  UNL1        0.1191
     18 H          60.2899   85.5303   11.4698 H       1  UNL1        0.1191
     19 C          62.9788   86.0708    9.7243 C.3     1  UNL1        0.0201
     20 C          62.8917   84.7167    7.5086 C.3     1  UNL1        0.0001
     21 C          63.1976   84.7897    8.9754 C.3     1  UNL1        0.0017
     22 C          63.7223   83.5816    9.6931 C.3     1  UNL1        0.0001
     23 C          64.7180   91.3997   14.0211 C.3     1  UNL1        0.1564
     24 N          65.9704   91.7784   14.7546 N.am    1  UNL1       -0.2727
     25 C          67.3736   91.5941   14.2572 C.3     1  UNL1        0.0943
     26 C          68.3100   92.1097   15.3094 C.3     1  UNL1        0.0311
     27 C          67.4856   92.6128   16.4573 C.3     1  UNL1        0.0870
     28 C          66.0397   92.4080   16.1143 C.2     1  UNL1        0.2260
     29 O          64.8687   92.7694   16.9793 O.2     1  UNL1       -0.2749
     30 C          63.6276   90.6558   14.7335 C.3     1  UNL1        0.0564
     31 C          63.7706   89.1860   14.9969 C.ar    1  UNL1       -0.0094
     32 C          64.2890   88.2783   13.9211 C.ar    1  UNL1       -0.0025
     33 C          64.4320   86.8085   14.1844 C.ar    1  UNL1        0.0111
     34 C          64.0567   86.2465   15.5235 C.ar    1  UNL1        0.0585
     35 CL         64.1997   84.7767   15.7869 Cl      1  UNL1       -0.0822
     36 C          63.5383   87.1543   16.5993 C.ar    1  UNL1        0.0225
     37 C          63.3952   88.6240   16.3360 C.ar    1  UNL1        0.0546
     38 CL         62.8768   89.5318   17.4117 Cl      1  UNL1       -0.0825
@<TRIPOS>BOND
     1    20    21    1
     2    21    22    1
     3    21    19    1
     4    19    15    1
     5    15    16    1
     6    15     9    1
     7     9    10   ar
     8    10    11   ar
     9    11    12   ar
    10    12    13   ar
    11    13    14   ar
    12    14     1    1
    13     1     2    1
    14     2     3    1
    15     3     4    1
    16     4     5   am
    17     5     6    2
    18     5    23    1
    19    23    30    1
    20    30    31    1
    21    31    32   ar
    22    32    33   ar
    23    33    34   ar
    24    34    35    1
    25    34    36   ar
    26    36    37   ar
    27    37    38    1
    28    23    24    1
    29    24    25    1
    30    25    26    1
    31    26    27    1
    32    27    28    1
    33    28    29    2
    34     4     7    1
    35     7     8    1
    36    14     9   ar
    37     8     1    1
    38    37    31   ar
    39    28    24   am
    40    16    17    1
    41    16    18    1
@<TRIPOS>MOLECULE
*****
 38 41 0 0 0
SMALL
GASTEIGER

@<TRIPOS>ATOM
      1 N          61.5411   89.2919   10.4334 N.pl3   1  UNL1       -0.3043
      2 C          62.7053   90.1493   10.0343 C.3     1  UNL1        0.1123
      3 C          63.4980   90.8728   11.0823 C.3     1  UNL1        0.1149
      4 N          63.1263   90.7389   12.5294 N.am    1  UNL1       -0.2747
      5 C          63.9189   91.4624   13.5773 C.2     1  UNL1        0.2442
      6 O          63.5473   91.3284   15.0243 O.2     1  UNL1       -0.2731
      7 C          61.9620   89.8815   12.9284 C.3     1  UNL1        0.1149
      8 C          61.1694   89.1580   11.8804 C.3     1  UNL1        0.1123
      9 C          60.8104   87.0723    9.2978 C.ar    1  UNL1        0.0051
     10 C          60.0178   86.3488    8.2498 C.ar    1  UNL1       -0.0018
     11 C          59.1632   87.1215    7.2893 C.ar    1  UNL1       -0.0002
     12 C          59.1012   88.6177    7.3768 C.ar    1  UNL1        0.0012
     13 C          59.8938   89.3411    8.4248 C.ar    1  UNL1        0.0142
     14 C          60.7484   88.5684    9.3853 C.ar    1  UNL1        0.0451
     15 C          61.6651   86.2996   10.2583 C.3     1  UNL1        0.0748
     16 N          61.1288   85.9301   11.6095 N.3     1  UNL1       -0.3188
     17 H          61.8385   85.4111   12.1266 H       1  UNL1        0.1191
     18 H          60.2971   85.3502   11.4983 H       1  UNL1        0.1191
     19 C          63.0560   85.8963    9.8675 C.3     1  UNL1        0.0201
     20 C          63.0004   84.5799    7.6283 C.3     1  UNL1        0.0001
     21 C          63.2814   84.6268    9.1010 C.3     1  UNL1        0.0017
     22 C          63.7879   83.4042    9.8072 C.3     1  UNL1        0.0001
     23 C          65.0832   92.3198   13.1783 C.3     1  UNL1        0.1564
     24 N          66.2661   92.4506   14.0914 N.am    1  UNL1       -0.2727
     25 C          66.9228   91.3349   14.8490 C.3     1  UNL1        0.0943
     26 C          68.0625   91.9148   15.6330 C.3     1  UNL1        0.0311
     27 C          68.1103   93.3890   15.3599 C.3     1  UNL1        0.0870
     28 C          67.0000   93.7201   14.4071 C.2     1  UNL1        0.2260
     29 O          66.6800   95.0817   13.8652 O.2     1  UNL1       -0.2749
     30 C          65.0647   93.0464   11.8662 C.3     1  UNL1        0.0564
     31 C          66.2220   92.9169   10.9207 C.ar    1  UNL1       -0.0094
     32 C          67.0354   91.6567   10.8991 C.ar    1  UNL1       -0.0025
     33 C          68.1926   91.5272    9.9536 C.ar    1  UNL1        0.0111
     34 C          68.5365   92.6577    9.0298 C.ar    1  UNL1        0.0585
     35 CL         69.6938   92.5282    8.0843 Cl      1  UNL1       -0.0822
     36 C          67.7231   93.9179    9.0514 C.ar    1  UNL1        0.0225
     37 C          66.5659   94.0474    9.9968 C.ar    1  UNL1        0.0546
     38 CL         65.7525   95.3076   10.0184 Cl      1  UNL1       -0.0825
@<TRIPOS>BOND
     1    20    21    1
     2    21    22    1
     3    21    19    1
     4    19    15    1
     5    15    16    1
     6    15     9    1
     7     9    10   ar
     8    10    11   ar
     9    11    12   ar
    10    12    13   ar
    11    13    14   ar
    12    14     1    1
    13     1     2    1
    14     2     3    1
    15     3     4    1
    16     4     5   am
    17     5     6    2
    18     5    23    1
    19    23    30    1
    20    30    31    1
    21    31    32   ar
    22    32    33   ar
    23    33    34   ar
    24    34    35    1
    25    34    36   ar
    26    36    37   ar
    27    37    38    1
    28    23    24    1
    29    24    25    1
    30    25    26    1
    31    26    27    1
    32    27    28    1
    33    28    29    2
    34     4     7    1
    35     7     8    1
    36    14     9   ar
    37     8     1    1
    38    37    31   ar
    39    28    24   am
    40    16    17    1
    41    16    18    1
@<TRIPOS>MOLECULE
*****
 38 41 0 0 0
SMALL
GASTEIGER

@<TRIPOS>ATOM
      1 N          63.4863   85.2815   14.1893 N.pl3   1  UNL1       -0.3043
      2 C          64.0439   86.3606   13.3092 C.3     1  UNL1        0.1123
      3 C          64.1700   87.7620   13.8290 C.3     1  UNL1        0.1149
      4 N          63.7384   88.0843   15.2289 N.am    1  UNL1       -0.2747
      5 C          63.8644   89.4857   15.7487 C.2     1  UNL1        0.2442
      6 O          63.4328   89.8080   17.1486 O.2     1  UNL1       -0.2731
      7 C          63.1807   87.0053   16.1091 C.3     1  UNL1        0.1149
      8 C          63.0547   85.6038   15.5892 C.3     1  UNL1        0.1123
      9 C          62.8529   83.6389   12.2786 C.ar    1  UNL1        0.0051
     10 C          62.7269   82.2375   11.7588 C.ar    1  UNL1       -0.0018
     11 C          63.1082   81.0774   12.6299 C.ar    1  UNL1       -0.0002
     12 C          63.6155   81.3186   14.0207 C.ar    1  UNL1        0.0012
     13 C          63.7415   82.7200   14.5404 C.ar    1  UNL1        0.0142
     14 C          63.3602   83.8801   13.6694 C.ar    1  UNL1        0.0451
     15 C          62.4716   84.7990   11.4076 C.3     1  UNL1        0.0748
     16 N          61.4259   85.7708   11.8681 N.3     1  UNL1       -0.3188
     17 H          61.2937   86.4902   11.1572 H       1  UNL1        0.1191
     18 H          61.7265   86.2058   12.7403 H       1  UNL1        0.1191
     19 C          63.1361   84.9874   10.0761 C.3     1  UNL1        0.0201
     20 C          62.1814   85.1811    7.6675 C.3     1  UNL1        0.0001
     21 C          62.4596   85.7945    9.0078 C.3     1  UNL1        0.0017
     22 C          62.0615   87.2148    9.2799 C.3     1  UNL1        0.0001
     23 C          64.4221   90.5648   14.8686 C.3     1  UNL1        0.1564
     24 N          65.6815   91.2778   15.2626 N.am    1  UNL1       -0.2727
     25 C          67.0508   91.0215   14.7062 C.3     1  UNL1        0.0943
     26 C          68.0085   91.9576   15.3819 C.3     1  UNL1        0.0311
     27 C          67.2311   92.7926   16.3559 C.3     1  UNL1        0.0870
     28 C          65.7929   92.3724   16.2821 C.2     1  UNL1        0.2260
     29 O          64.6644   92.9462   17.0867 O.2     1  UNL1       -0.2749
     30 C          63.7203   90.9308   13.5945 C.3     1  UNL1        0.0564
     31 C          64.4261   91.7563   12.5598 C.ar    1  UNL1       -0.0094
     32 C          65.4267   92.7915   12.9810 C.ar    1  UNL1       -0.0025
     33 C          66.1325   93.6169   11.9464 C.ar    1  UNL1        0.0111
     34 C          65.8379   93.4071   10.4907 C.ar    1  UNL1        0.0585
     35 CL         66.5437   94.2326    9.4560 Cl      1  UNL1       -0.0822
     36 C          64.8373   92.3720   10.0696 C.ar    1  UNL1        0.0225
     37 C          64.1315   91.5465   11.1041 C.ar    1  UNL1        0.0546
     38 CL         63.1309   90.5114   10.6830 Cl      1  UNL1       -0.0825
@<TRIPOS>BOND
     1    20    21    1
     2    21    22    1
     3    21    19    1
     4    19    15    1
     5    15    16    1
     6    15     9    1
     7     9    10   ar
     8    10    11   ar
     9    11    12   ar
    10    12    13   ar
    11    13    14   ar
    12    14     1    1
    13     1     2    1
    14     2     3    1
    15     3     4    1
    16     4     5   am
    17     5     6    2
    18     5    23    1
    19    23    30    1
    20    30    31    1
    21    31    32   ar
    22    32    33   ar
    23    33    34   ar
    24    34    35    1
    25    34    36   ar
    26    36    37   ar
    27    37    38    1
    28    23    24    1
    29    24    25    1
    30    25    26    1
    31    26    27    1
    32    27    28    1
    33    28    29    2
    34     4     7    1
    35     7     8    1
    36    14     9   ar
    37     8     1    1
    38    37    31   ar
    39    28    24   am
    40    16    17    1
    41    16    18    1
@<TRIPOS>MOLECULE
*****
 38 41 0 0 0
SMALL
GASTEIGER

@<TRIPOS>ATOM
      1 N          63.1930   86.2956   12.9433 N.pl3   1  UNL1       -0.3043
      2 C          64.2701   86.9566   13.7513 C.3     1  UNL1        0.1123
      3 C          64.5627   88.4153   13.5603 C.3     1  UNL1        0.1149
      4 N          63.7781   89.2131   12.5613 N.am    1  UNL1       -0.2747
      5 C          64.0706   90.6718   12.3703 C.2     1  UNL1        0.2442
      6 O          63.2860   91.4695   11.3713 O.2     1  UNL1       -0.2731
      7 C          62.7009   88.5521   11.7533 C.3     1  UNL1        0.1149
      8 C          62.4084   87.0933   11.9444 C.3     1  UNL1        0.1123
      9 C          62.9745   84.2301   14.5042 C.ar    1  UNL1        0.0051
     10 C          62.6819   82.7714   14.6952 C.ar    1  UNL1       -0.0018
     11 C          62.3153   81.9194   13.5164 C.ar    1  UNL1       -0.0002
     12 C          62.2412   82.5261   12.1466 C.ar    1  UNL1        0.0012
     13 C          62.5338   83.9848   11.9556 C.ar    1  UNL1        0.0142
     14 C          62.9004   84.8368   13.1344 C.ar    1  UNL1        0.0451
     15 C          63.3411   85.0822   15.6830 C.3     1  UNL1        0.0748
     16 N          64.7800   85.2389   16.0766 N.3     1  UNL1       -0.3188
     17 H          64.8450   85.8472   16.8928 H       1  UNL1        0.1191
     18 H          65.3011   85.6514   15.3028 H       1  UNL1        0.1191
     19 C          62.2688   85.7775   16.4683 C.3     1  UNL1        0.0201
     20 C          62.9165   88.2601   16.8774 C.3     1  UNL1        0.0001
     21 C          62.6295   86.8876   17.4104 C.3     1  UNL1        0.0017
     22 C          62.7030   86.6254   18.8854 C.3     1  UNL1        0.0001
     23 C          65.1478   91.3328   13.1783 C.3     1  UNL1        0.1564
     24 N          64.9140   91.6454   14.6266 N.am    1  UNL1       -0.2727
     25 C          63.7067   91.2585   15.4284 C.3     1  UNL1        0.0943
     26 C          63.8930   91.7738   16.8247 C.3     1  UNL1        0.0311
     27 C          65.2154   92.4792   16.8860 C.3     1  UNL1        0.0870
     28 C          65.8464   92.3998   15.5274 C.2     1  UNL1        0.2260
     29 O          67.1763   92.9741   15.1381 O.2     1  UNL1       -0.2749
     30 C          66.4587   91.6812   12.5380 C.3     1  UNL1        0.0564
     31 C          66.5811   92.9248   11.7081 C.ar    1  UNL1       -0.0094
     32 C          65.9622   94.2064   12.1818 C.ar    1  UNL1       -0.0025
     33 C          66.0845   95.4499   11.3520 C.ar    1  UNL1        0.0111
     34 C          66.8258   95.4119   10.0486 C.ar    1  UNL1        0.0585
     35 CL         66.9482   96.6554    9.2187 Cl      1  UNL1       -0.0822
     36 C          67.4447   94.1302    9.5749 C.ar    1  UNL1        0.0225
     37 C          67.3224   92.8867   10.4047 C.ar    1  UNL1        0.0546
     38 CL         67.9413   91.6050    9.9310 Cl      1  UNL1       -0.0825
@<TRIPOS>BOND
     1    20    21    1
     2    21    22    1
     3    21    19    1
     4    19    15    1
     5    15    16    1
     6    15     9    1
     7     9    10   ar
     8    10    11   ar
     9    11    12   ar
    10    12    13   ar
    11    13    14   ar
    12    14     1    1
    13     1     2    1
    14     2     3    1
    15     3     4    1
    16     4     5   am
    17     5     6    2
    18     5    23    1
    19    23    30    1
    20    30    31    1
    21    31    32   ar
    22    32    33   ar
    23    33    34   ar
    24    34    35    1
    25    34    36   ar
    26    36    37   ar
    27    37    38    1
    28    23    24    1
    29    24    25    1
    30    25    26    1
    31    26    27    1
    32    27    28    1
    33    28    29    2
    34     4     7    1
    35     7     8    1
    36    14     9   ar
    37     8     1    1
    38    37    31   ar
    39    28    24   am
    40    16    17    1
    41    16    18    1
@<TRIPOS>MOLECULE
*****
 38 41 0 0 0
SMALL
GASTEIGER

@<TRIPOS>ATOM
      1 N          64.1996   91.0194   13.1477 N.pl3   1  UNL1       -0.3043
      2 C          64.4189   90.5391   11.7437 C.3     1  UNL1        0.1123
      3 C          63.3805   89.6920   11.0700 C.3     1  UNL1        0.1149
      4 N          62.1226   89.3250   11.8003 N.am    1  UNL1       -0.2747
      5 C          61.0842   88.4778   11.1266 C.2     1  UNL1        0.2442
      6 O          59.8264   88.1110   11.8569 O.2     1  UNL1       -0.2731
      7 C          61.9033   89.8053   13.2043 C.3     1  UNL1        0.1149
      8 C          62.9418   90.6526   13.8780 C.3     1  UNL1        0.1123
      9 C          66.1059   92.7790   13.0062 C.ar    1  UNL1        0.0051
     10 C          67.1443   93.6262   13.6799 C.ar    1  UNL1       -0.0018
     11 C          67.3149   93.5610   15.1688 C.ar    1  UNL1       -0.0002
     12 C          66.4471   92.6487   15.9839 C.ar    1  UNL1        0.0012
     13 C          65.4087   91.8015   15.3102 C.ar    1  UNL1        0.0142
     14 C          65.2381   91.8667   13.8214 C.ar    1  UNL1        0.0451
     15 C          65.9352   92.8442   11.5174 C.3     1  UNL1        0.0748
     16 N          64.7525   93.5543   10.9284 N.3     1  UNL1       -0.3188
     17 H          64.7959   93.5007    9.9107 H       1  UNL1        0.1191
     18 H          64.7642   94.5322   11.2181 H       1  UNL1        0.1191
     19 C          66.9473   92.1993   10.6175 C.3     1  UNL1        0.0201
     20 C          68.7440   92.3910    8.7507 C.3     1  UNL1        0.0001
     21 C          67.7516   93.0391    9.6700 C.3     1  UNL1        0.0017
     22 C          67.5635   94.5270    9.6418 C.3     1  UNL1        0.0001
     23 C          61.3035   87.9975    9.7226 C.3     1  UNL1        0.1564
     24 N          60.3446   88.3888    8.6377 N.am    1  UNL1       -0.2727
     25 C          59.9879   89.7904    8.2394 C.3     1  UNL1        0.0943
     26 C          58.9968   89.7152    7.1161 C.3     1  UNL1        0.0311
     27 C          58.7408   88.2671    6.8199 C.3     1  UNL1        0.0870
     28 C          59.5739   87.4474    7.7603 C.2     1  UNL1        0.2260
     29 O          59.6268   85.9493    7.8140 O.2     1  UNL1       -0.2749
     30 C          62.4818   87.1259    9.4036 C.3     1  UNL1        0.0564
     31 C          62.6758   85.8301   10.1339 C.ar    1  UNL1       -0.0094
     32 C          62.4698   85.7677   11.6184 C.ar    1  UNL1       -0.0025
     33 C          62.6638   84.4720   12.3488 C.ar    1  UNL1        0.0111
     34 C          63.0637   83.2387   11.5946 C.ar    1  UNL1        0.0585
     35 CL         63.2577   81.9428   12.3250 Cl      1  UNL1       -0.0822
     36 C          63.2697   83.3010   10.1101 C.ar    1  UNL1        0.0225
     37 C          63.0758   84.5967    9.3798 C.ar    1  UNL1        0.0546
     38 CL         63.2818   84.6591    7.8953 Cl      1  UNL1       -0.0825
@<TRIPOS>BOND
     1    20    21    1
     2    21    22    1
     3    21    19    1
     4    19    15    1
     5    15    16    1
     6    15     9    1
     7     9    10   ar
     8    10    11   ar
     9    11    12   ar
    10    12    13   ar
    11    13    14   ar
    12    14     1    1
    13     1     2    1
    14     2     3    1
    15     3     4    1
    16     4     5   am
    17     5     6    2
    18     5    23    1
    19    23    30    1
    20    30    31    1
    21    31    32   ar
    22    32    33   ar
    23    33    34   ar
    24    34    35    1
    25    34    36   ar
    26    36    37   ar
    27    37    38    1
    28    23    24    1
    29    24    25    1
    30    25    26    1
    31    26    27    1
    32    27    28    1
    33    28    29    2
    34     4     7    1
    35     7     8    1
    36    14     9   ar
    37     8     1    1
    38    37    31   ar
    39    28    24   am
    40    16    17    1
    41    16    18    1
@<TRIPOS>MOLECULE
*****
 38 41 0 0 0
SMALL
GASTEIGER

@<TRIPOS>ATOM
      1 N          63.2771   84.8416   13.3715 N.pl3   1  UNL1       -0.3043
      2 C          62.5885   85.8522   12.5029 C.3     1  UNL1        0.1123
      3 C          62.8806   87.3132   12.6761 C.3     1  UNL1        0.1149
      4 N          63.8613   87.7637   13.7180 N.am    1  UNL1       -0.2747
      5 C          64.1533   89.2247   13.8912 C.2     1  UNL1        0.2442
      6 O          65.1340   89.6751   14.9330 O.2     1  UNL1       -0.2731
      7 C          64.5498   86.7530   14.5866 C.3     1  UNL1        0.1149
      8 C          64.2577   85.2919   14.4133 C.3     1  UNL1        0.1123
      9 C          63.0646   82.7560   11.8368 C.ar    1  UNL1        0.0051
     10 C          62.7725   81.2950   11.6636 C.ar    1  UNL1       -0.0018
     11 C          62.4007   80.4584   12.8518 C.ar    1  UNL1       -0.0002
     12 C          62.3210   81.0829   14.2133 C.ar    1  UNL1        0.0012
     13 C          62.6131   82.5439   14.3865 C.ar    1  UNL1        0.0142
     14 C          62.9849   83.3805   13.1982 C.ar    1  UNL1        0.0451
     15 C          63.4364   83.5925   10.6485 C.3     1  UNL1        0.0748
     16 N          64.8760   83.7340   10.2518 N.3     1  UNL1       -0.3188
     17 H          64.9446   84.3330    9.4290 H       1  UNL1        0.1191
     18 H          65.2611   82.8145   10.0360 H       1  UNL1        0.1191
     19 C          62.3686   84.2876    9.8570 C.3     1  UNL1        0.0201
     20 C          63.0692   86.6409    9.0077 C.3     1  UNL1        0.0001
     21 C          62.7460   85.2026    8.7299 C.3     1  UNL1        0.0017
     22 C          62.8004   84.6795    7.3252 C.3     1  UNL1        0.0001
     23 C          63.4648   90.2353   13.0226 C.3     1  UNL1        0.1564
     24 N          64.2683   91.2784   12.3040 N.am    1  UNL1       -0.2727
     25 C          64.3335   91.4724   10.8180 C.3     1  UNL1        0.0943
     26 C          65.2533   92.6244   10.5408 C.3     1  UNL1        0.0311
     27 C          65.7565   93.1426   11.8555 C.3     1  UNL1        0.0870
     28 C          65.1477   92.3106   12.9453 C.2     1  UNL1        0.2260
     29 O          65.3780   92.4810   14.4176 O.2     1  UNL1       -0.2749
     30 C          61.9727   90.2029   12.8725 C.3     1  UNL1        0.0564
     31 C          61.3586   89.7664   11.5754 C.ar    1  UNL1       -0.0094
     32 C          62.1173   89.9344   10.2924 C.ar    1  UNL1       -0.0025
     33 C          61.5033   89.4979    8.9953 C.ar    1  UNL1        0.0111
     34 C          60.1306   88.8934    8.9813 C.ar    1  UNL1        0.0585
     35 CL         59.5166   88.4568    7.6842 Cl      1  UNL1       -0.0822
     36 C          59.3719   88.7254   10.2643 C.ar    1  UNL1        0.0225
     37 C          59.9859   89.1619   11.5614 C.ar    1  UNL1        0.0546
     38 CL         59.2273   88.9938   12.8444 Cl      1  UNL1       -0.0825
@<TRIPOS>BOND
     1    20    21    1
     2    21    22    1
     3    21    19    1
     4    19    15    1
     5    15    16    1
     6    15     9    1
     7     9    10   ar
     8    10    11   ar
     9    11    12   ar
    10    12    13   ar
    11    13    14   ar
    12    14     1    1
    13     1     2    1
    14     2     3    1
    15     3     4    1
    16     4     5   am
    17     5     6    2
    18     5    23    1
    19    23    30    1
    20    30    31    1
    21    31    32   ar
    22    32    33   ar
    23    33    34   ar
    24    34    35    1
    25    34    36   ar
    26    36    37   ar
    27    37    38    1
    28    23    24    1
    29    24    25    1
    30    25    26    1
    31    26    27    1
    32    27    28    1
    33    28    29    2
    34     4     7    1
    35     7     8    1
    36    14     9   ar
    37     8     1    1
    38    37    31   ar
    39    28    24   am
    40    16    17    1
    41    16    18    1
