@<TRIPOS>MOLECULE
*****
 36 40 0 0 0
SMALL
GASTEIGER

@<TRIPOS>ATOM
      1 C          60.4930   86.6212    8.1215 C.3     1  UNL1        0.0795
      2 C          59.7225   87.3882    7.0882 C.3     1  UNL1        0.0178
      3 C          59.3051   88.8030    7.3609 C.3     1  UNL1        0.0029
      4 C          59.6583   89.4506    8.6669 C.3     1  UNL1        0.0178
      5 C          60.4289   88.6836    9.7002 C.3     1  UNL1        0.0799
      6 N          60.8462   87.2688    9.4275 N.3     1  UNL1       -0.1583
      7 C          60.7821   89.3312   11.0063 C.3     1  UNL1        0.0237
      8 C          60.6157   89.9811   12.3480 C.3     1  UNL1        0.0019
      9 C          59.4083   89.5626   11.5623 C.3     1  UNL1        0.0019
     10 C          62.2786   89.3247   10.9039 C.3     1  UNL1        0.0866
     11 C          63.0177   90.6027   10.6383 C.2     1  UNL1        0.2257
     12 O          62.7304   91.3907    9.3948 O.2     1  UNL1       -0.2749
     13 N          64.0441   91.0926   11.6163 N.am    1  UNL1       -0.2794
     14 C          64.3314   90.3045   12.8599 C.3     1  UNL1        0.0948
     15 C          65.3578   90.7945   13.8379 C.3     1  UNL1        0.0375
     16 C          66.0968   92.0724   13.5724 C.3     1  UNL1        0.0609
     17 C          65.8096   92.8605   12.3289 C.3     1  UNL1        0.0375
     18 C          64.7832   92.3706   11.3508 C.3     1  UNL1        0.0948
     19 N          67.1233   92.5624   14.5504 N.3     1  UNL1       -0.2738
     20 C          67.3880   94.0325   14.6862 C.3     1  UNL1        0.0720
     21 C          68.4144   94.5225   15.6642 C.3     1  UNL1        0.0174
     22 C          69.1760   93.5424   16.5063 C.3     1  UNL1        0.0029
     23 C          68.9112   92.0721   16.3706 C.3     1  UNL1        0.0174
     24 C          67.8848   91.5822   15.3926 C.3     1  UNL1        0.0720
     25 S          61.6168   86.5017   10.4610 S.O2    1  UNL1        0.0632
     26 O          62.8124   86.4828    9.5553 O.2     1  UNL1       -0.1528
     27 O          60.7405   86.3513   11.4768 O.2     1  UNL1       -0.1528
     28 C          62.3874   85.7347   11.4943 C.ar    1  UNL1        0.1222
     29 C          63.0568   86.4612   12.6231 C.ar    1  UNL1        0.0208
     30 C          63.8274   85.6942   13.6564 C.ar    1  UNL1        0.0128
     31 C          63.9286   84.2007   13.5610 C.ar    1  UNL1        0.0578
     32 CL         64.6992   83.4336   14.5944 Cl      1  UNL1       -0.0822
     33 C          63.2593   83.4742   12.4323 C.ar    1  UNL1        0.0128
     34 C          62.4886   84.2412   11.3989 C.ar    1  UNL1        0.0208
     35 C          61.7423   84.8893    6.6417 C.3     1  UNL1        0.0015
     36 C          60.9104   85.2064    7.8488 C.3     1  UNL1        0.0177
@<TRIPOS>BOND
     1    35    36    1
     2     1    36    1
     3     1     2    1
     4     2     3    1
     5     3     4    1
     6     4     5    1
     7     5     7    1
     8     7    10    1
     9    10    11    1
    10    11    12    2
    11    11    13   am
    12    13    14    1
    13    14    15    1
    14    15    16    1
    15    16    19    1
    16    19    20    1
    17    20    21    1
    18    21    22    1
    19    22    23    1
    20    23    24    1
    21    16    17    1
    22    17    18    1
    23     7     8    1
    24     8     9    1
    25     5     6    1
    26     6    25    1
    27    25    26    2
    28    25    27    2
    29    25    28    1
    30    28    29   ar
    31    29    30   ar
    32    30    31   ar
    33    31    32    1
    34    31    33   ar
    35    33    34   ar
    36     6     1    1
    37    34    28   ar
    38     9     7    1
    39    18    13    1
    40    24    19    1
@<TRIPOS>MOLECULE
*****
 36 40 0 0 0
SMALL
GASTEIGER

@<TRIPOS>ATOM
      1 C          65.8579   92.0151   13.0247 C.3     1  UNL1        0.0795
      2 C          66.2353   92.9998   11.9581 C.3     1  UNL1        0.0178
      3 C          65.3771   93.1484   10.7368 C.3     1  UNL1        0.0029
      4 C          64.1416   92.3122   10.5822 C.3     1  UNL1        0.0178
      5 C          63.7641   91.3274   11.6488 C.3     1  UNL1        0.0799
      6 N          64.6223   91.1788   12.8700 N.3     1  UNL1       -0.1583
      7 C          62.5285   90.4911   11.4941 C.3     1  UNL1        0.0237
      8 C          61.1619   89.9328   11.7601 C.3     1  UNL1        0.0019
      9 C          61.7221   91.0013   12.6515 C.3     1  UNL1        0.0019
     10 C          62.9058   89.6905   10.2831 C.3     1  UNL1        0.0866
     11 C          62.0302   88.5605    9.8284 C.2     1  UNL1        0.2257
     12 O          61.0351   88.7791    8.7276 O.2     1  UNL1       -0.2749
     13 N          62.1499   87.2122   10.4745 N.am    1  UNL1       -0.2794
     14 C          63.1450   86.9936   11.5753 C.3     1  UNL1        0.0948
     15 C          63.2647   85.6452   12.2215 C.3     1  UNL1        0.0375
     16 C          62.3892   84.5154   11.7668 C.3     1  UNL1        0.0609
     17 C          61.3940   84.7338   10.6660 C.3     1  UNL1        0.0375
     18 C          61.2743   86.0822   10.0198 C.3     1  UNL1        0.0948
     19 N          62.5088   83.1669   12.4130 N.3     1  UNL1       -0.2738
     20 C          62.7807   81.9543   11.5729 C.3     1  UNL1        0.0720
     21 C          62.9004   80.6059   12.2191 C.3     1  UNL1        0.0174
     22 C          62.7481   80.4700   13.7050 C.3     1  UNL1        0.0029
     23 C          62.4761   81.6827   14.5451 C.3     1  UNL1        0.0174
     24 C          62.3565   83.0311   13.8990 C.3     1  UNL1        0.0720
     25 S          64.2448   90.1940   13.9367 S.O2    1  UNL1        0.0632
     26 O          63.7448   91.3168   14.7964 O.2     1  UNL1       -0.1528
     27 O          64.5993   88.9990   13.4181 O.2     1  UNL1       -0.1528
     28 C          63.8673   89.2092   15.0033 C.ar    1  UNL1        0.1222
     29 C          64.2147   87.7589   14.8420 C.ar    1  UNL1        0.0208
     30 C          63.8372   86.7741   15.9086 C.ar    1  UNL1        0.0128
     31 C          63.1123   87.2396   17.1365 C.ar    1  UNL1        0.0578
     32 CL         62.7349   86.2548   18.2031 Cl      1  UNL1       -0.0822
     33 C          62.7650   88.6898   17.2979 C.ar    1  UNL1        0.0128
     34 C          63.1425   89.6747   16.2312 C.ar    1  UNL1        0.0208
     35 C          66.8803   93.0190   15.1919 C.3     1  UNL1        0.0015
     36 C          66.7161   91.8665   14.2459 C.3     1  UNL1        0.0177
@<TRIPOS>BOND
     1    35    36    1
     2     1    36    1
     3     1     2    1
     4     2     3    1
     5     3     4    1
     6     4     5    1
     7     5     7    1
     8     7    10    1
     9    10    11    1
    10    11    12    2
    11    11    13   am
    12    13    14    1
    13    14    15    1
    14    15    16    1
    15    16    19    1
    16    19    20    1
    17    20    21    1
    18    21    22    1
    19    22    23    1
    20    23    24    1
    21    16    17    1
    22    17    18    1
    23     7     8    1
    24     8     9    1
    25     5     6    1
    26     6    25    1
    27    25    26    2
    28    25    27    2
    29    25    28    1
    30    28    29   ar
    31    29    30   ar
    32    30    31   ar
    33    31    32    1
    34    31    33   ar
    35    33    34   ar
    36     6     1    1
    37    34    28   ar
    38     9     7    1
    39    18    13    1
    40    24    19    1
@<TRIPOS>MOLECULE
*****
 36 40 0 0 0
SMALL
GASTEIGER

@<TRIPOS>ATOM
      1 C          65.6085   91.8422   12.5582 C.3     1  UNL1        0.0795
      2 C          66.7196   92.4898   13.3302 C.3     1  UNL1        0.0178
      3 C          66.8495   92.2466   14.8046 C.3     1  UNL1        0.0029
      4 C          65.8683   91.3557   15.5071 C.3     1  UNL1        0.0178
      5 C          64.7572   90.7081   14.7352 C.3     1  UNL1        0.0799
      6 N          64.6272   90.9514   13.2607 N.3     1  UNL1       -0.1583
      7 C          63.7758   89.8172   15.4376 C.3     1  UNL1        0.0237
      8 C          62.6184   89.3924   16.2920 C.3     1  UNL1        0.0019
      9 C          62.9277   90.8500   16.1190 C.3     1  UNL1        0.0019
     10 C          64.2832   88.4751   15.0003 C.3     1  UNL1        0.0866
     11 C          63.8364   87.2348   15.7159 C.2     1  UNL1        0.2257
     12 O          63.5677   87.2757   17.1911 O.2     1  UNL1       -0.2749
     13 N          63.6582   85.9537   14.9563 N.am    1  UNL1       -0.2794
     14 C          63.9269   85.9128   13.4812 C.3     1  UNL1        0.0948
     15 C          63.7487   84.6316   12.7216 C.3     1  UNL1        0.0375
     16 C          63.3019   83.3915   13.4371 C.3     1  UNL1        0.0609
     17 C          63.0332   83.4322   14.9123 C.3     1  UNL1        0.0375
     18 C          63.2114   84.7134   15.6719 C.3     1  UNL1        0.0948
     19 N          63.1237   82.1103   12.6776 N.3     1  UNL1       -0.2738
     20 C          63.3769   82.0733   11.1996 C.3     1  UNL1        0.0720
     21 C          63.1988   80.7921   10.4400 C.3     1  UNL1        0.0174
     22 C          62.7674   79.5481   11.1584 C.3     1  UNL1        0.0029
     23 C          62.5142   79.5850   12.6365 C.3     1  UNL1        0.0174
     24 C          62.6923   80.8662   13.3960 C.3     1  UNL1        0.0720
     25 S          63.5160   90.3037   12.4888 S.O2    1  UNL1        0.0632
     26 O          62.7377   91.5852   12.5341 O.2     1  UNL1       -0.1528
     27 O          63.9538   89.0437   12.2811 O.2     1  UNL1       -0.1528
     28 C          62.4048   89.6562   11.7169 C.ar    1  UNL1        0.1222
     29 C          62.4292   88.1777   11.4648 C.ar    1  UNL1        0.0208
     30 C          61.3180   87.5301   10.6929 C.ar    1  UNL1        0.0128
     31 C          60.1824   88.3610   10.1730 C.ar    1  UNL1        0.0578
     32 CL         59.0713   87.7134    9.4011 Cl      1  UNL1       -0.0822
     33 C          60.1581   89.8394   10.4251 C.ar    1  UNL1        0.0128
     34 C          61.2693   90.4870   11.1970 C.ar    1  UNL1        0.0208
     35 C          65.8854   93.4072   10.5030 C.3     1  UNL1        0.0015
     36 C          65.4786   92.0855   11.0838 C.3     1  UNL1        0.0177
@<TRIPOS>BOND
     1    35    36    1
     2     1    36    1
     3     1     2    1
     4     2     3    1
     5     3     4    1
     6     4     5    1
     7     5     7    1
     8     7    10    1
     9    10    11    1
    10    11    12    2
    11    11    13   am
    12    13    14    1
    13    14    15    1
    14    15    16    1
    15    16    19    1
    16    19    20    1
    17    20    21    1
    18    21    22    1
    19    22    23    1
    20    23    24    1
    21    16    17    1
    22    17    18    1
    23     7     8    1
    24     8     9    1
    25     5     6    1
    26     6    25    1
    27    25    26    2
    28    25    27    2
    29    25    28    1
    30    28    29   ar
    31    29    30   ar
    32    30    31   ar
    33    31    32    1
    34    31    33   ar
    35    33    34   ar
    36     6     1    1
    37    34    28   ar
    38     9     7    1
    39    18    13    1
    40    24    19    1
@<TRIPOS>MOLECULE
*****
 36 40 0 0 0
SMALL
GASTEIGER

@<TRIPOS>ATOM
      1 C          64.7858   95.5431    0.6847 C.3     1  UNL1        0.0795
      2 C          65.6100   96.3304   -0.2904 C.3     1  UNL1        0.0178
      3 C          65.1508   96.4815   -1.7103 C.3     1  UNL1        0.0029
      4 C          63.8673   95.8454   -2.1552 C.3     1  UNL1        0.0178
      5 C          63.0430   95.0582   -1.1801 C.3     1  UNL1        0.0799
      6 N          63.5023   94.9070    0.2398 N.3     1  UNL1       -0.1583
      7 C          61.7595   94.4220   -1.6249 C.3     1  UNL1        0.0237
      8 C          60.8009   93.3826   -2.1256 C.3     1  UNL1        0.0019
      9 C          62.2494   93.0397   -1.9402 C.3     1  UNL1        0.0019
     10 C          60.8239   95.5834   -1.4641 C.3     1  UNL1        0.0866
     11 C          60.1839   96.2035   -2.6707 C.2     1  UNL1        0.2257
     12 O          61.0353   96.8549   -3.7199 O.2     1  UNL1       -0.2749
     13 N          58.6925   96.1723   -2.8281 N.am    1  UNL1       -0.2794
     14 C          57.8411   95.5210   -1.7789 C.3     1  UNL1        0.0948
     15 C          56.3496   95.4898   -1.9364 C.3     1  UNL1        0.0375
     16 C          55.7097   96.1099   -3.1429 C.3     1  UNL1        0.0609
     17 C          56.5611   96.7613   -4.1921 C.3     1  UNL1        0.0375
     18 C          58.0526   96.7925   -4.0347 C.3     1  UNL1        0.0948
     19 N          54.2183   96.0788   -3.3003 N.3     1  UNL1       -0.2738
     20 C          53.5996   96.3550   -4.6386 C.3     1  UNL1        0.0720
     21 C          52.1081   96.3238   -4.7960 C.3     1  UNL1        0.0174
     22 C          51.2356   96.0165   -3.6154 C.3     1  UNL1        0.0029
     23 C          51.8543   95.7402   -2.2771 C.3     1  UNL1        0.0174
     24 C          53.3458   95.7714   -2.1196 C.3     1  UNL1        0.0720
     25 S          62.6780   94.1197    1.2149 S.O2    1  UNL1        0.0632
     26 O          61.8929   95.3537    1.5476 O.2     1  UNL1       -0.1528
     27 O          63.1842   92.8706    1.1368 O.2     1  UNL1       -0.1528
     28 C          61.8537   93.3325    2.1900 C.ar    1  UNL1        0.1222
     29 C          60.4123   93.6848    2.4097 C.ar    1  UNL1        0.0208
     30 C          59.5880   92.8975    3.3847 C.ar    1  UNL1        0.0128
     31 C          60.2051   91.7580    4.1401 C.ar    1  UNL1        0.0578
     32 CL         59.3808   90.9707    5.1152 Cl      1  UNL1       -0.0822
     33 C          61.6464   91.4056    3.9205 C.ar    1  UNL1        0.0128
     34 C          62.4708   92.1929    2.9454 C.ar    1  UNL1        0.0208
     35 C          65.0974   96.5337    3.0662 C.3     1  UNL1        0.0015
     36 C          65.2451   95.3920    2.1047 C.3     1  UNL1        0.0177
@<TRIPOS>BOND
     1    35    36    1
     2     1    36    1
     3     1     2    1
     4     2     3    1
     5     3     4    1
     6     4     5    1
     7     5     7    1
     8     7    10    1
     9    10    11    1
    10    11    12    2
    11    11    13   am
    12    13    14    1
    13    14    15    1
    14    15    16    1
    15    16    19    1
    16    19    20    1
    17    20    21    1
    18    21    22    1
    19    22    23    1
    20    23    24    1
    21    16    17    1
    22    17    18    1
    23     7     8    1
    24     8     9    1
    25     5     6    1
    26     6    25    1
    27    25    26    2
    28    25    27    2
    29    25    28    1
    30    28    29   ar
    31    29    30   ar
    32    30    31   ar
    33    31    32    1
    34    31    33   ar
    35    33    34   ar
    36     6     1    1
    37    34    28   ar
    38     9     7    1
    39    18    13    1
    40    24    19    1
@<TRIPOS>MOLECULE
*****
 36 40 0 0 0
SMALL
GASTEIGER

@<TRIPOS>ATOM
      1 C          64.4020   95.2069   -0.1609 C.3     1  UNL1        0.0795
      2 C          65.0497   96.0408   -1.2263 C.3     1  UNL1        0.0178
      3 C          64.2065   96.7109   -2.2703 C.3     1  UNL1        0.0029
      4 C          62.7157   96.5471   -2.2490 C.3     1  UNL1        0.0178
      5 C          62.0680   95.7132   -1.1836 C.3     1  UNL1        0.0799
      6 N          62.9112   95.0431   -0.1396 N.3     1  UNL1       -0.1583
      7 C          60.5771   95.5493   -1.1622 C.3     1  UNL1        0.0237
      8 C          59.1359   95.8018   -0.8318 C.3     1  UNL1        0.0019
      9 C          60.2024   96.6913   -0.2647 C.3     1  UNL1        0.0019
     10 C          60.4342   94.3505   -2.0523 C.3     1  UNL1        0.0866
     11 C          59.8426   94.5000   -3.4226 C.2     1  UNL1        0.2257
     12 O          60.3492   95.5684   -4.3457 O.2     1  UNL1       -0.2749
     13 N          58.7445   93.5813   -3.8699 N.am    1  UNL1       -0.2794
     14 C          58.2379   92.5130   -2.9468 C.3     1  UNL1        0.0948
     15 C          57.1397   91.5943   -3.3941 C.3     1  UNL1        0.0375
     16 C          56.5482   91.7438   -4.7643 C.3     1  UNL1        0.0609
     17 C          57.0548   92.8121   -5.6874 C.3     1  UNL1        0.0375
     18 C          58.1529   93.7309   -5.2402 C.3     1  UNL1        0.0948
     19 N          55.4500   90.8251   -5.2116 N.3     1  UNL1       -0.2738
     20 C          54.8660   89.8315   -4.2516 C.3     1  UNL1        0.0720
     21 C          53.7678   88.9127   -4.6989 C.3     1  UNL1        0.0174
     22 C          53.2538   88.9876   -6.1060 C.3     1  UNL1        0.0029
     23 C          53.8379   89.9812   -7.0661 C.3     1  UNL1        0.0174
     24 C          54.9361   90.9000   -6.6188 C.3     1  UNL1        0.0720
     25 S          62.2635   94.2092    0.9258 S.O2    1  UNL1        0.0632
     26 O          62.1325   95.4234    1.7966 O.2     1  UNL1       -0.1528
     27 O          62.2368   92.9672    0.3973 O.2     1  UNL1       -0.1528
     28 C          61.6157   93.3753    1.9912 C.ar    1  UNL1        0.1222
     29 C          60.1702   93.5851    2.3326 C.ar    1  UNL1        0.0208
     30 C          59.5225   92.7513    3.3980 C.ar    1  UNL1        0.0128
     31 C          60.3202   91.7075    4.1220 C.ar    1  UNL1        0.0578
     32 CL         59.6725   90.8737    5.1874 Cl      1  UNL1       -0.0822
     33 C          61.7657   91.4977    3.7807 C.ar    1  UNL1        0.0128
     34 C          62.4135   92.3316    2.7153 C.ar    1  UNL1        0.0208
     35 C          65.6728   93.1108    0.7001 C.3     1  UNL1        0.0015
     36 C          65.2452   94.5368    0.8831 C.3     1  UNL1        0.0177
@<TRIPOS>BOND
     1    35    36    1
     2     1    36    1
     3     1     2    1
     4     2     3    1
     5     3     4    1
     6     4     5    1
     7     5     7    1
     8     7    10    1
     9    10    11    1
    10    11    12    2
    11    11    13   am
    12    13    14    1
    13    14    15    1
    14    15    16    1
    15    16    19    1
    16    19    20    1
    17    20    21    1
    18    21    22    1
    19    22    23    1
    20    23    24    1
    21    16    17    1
    22    17    18    1
    23     7     8    1
    24     8     9    1
    25     5     6    1
    26     6    25    1
    27    25    26    2
    28    25    27    2
    29    25    28    1
    30    28    29   ar
    31    29    30   ar
    32    30    31   ar
    33    31    32    1
    34    31    33   ar
    35    33    34   ar
    36     6     1    1
    37    34    28   ar
    38     9     7    1
    39    18    13    1
    40    24    19    1
@<TRIPOS>MOLECULE
*****
 36 40 0 0 0
SMALL
GASTEIGER

@<TRIPOS>ATOM
      1 C          64.1846   91.5363   11.3051 C.3     1  UNL1        0.0795
      2 C          63.0211   90.9838   10.5363 C.3     1  UNL1        0.0178
      3 C          62.0907   90.0029   11.1860 C.3     1  UNL1        0.0029
      4 C          62.3237   89.5744   12.6044 C.3     1  UNL1        0.0178
      5 C          63.4872   90.1269   13.3732 C.3     1  UNL1        0.0799
      6 N          64.4176   91.1079   12.7236 N.3     1  UNL1       -0.1583
      7 C          63.7202   89.6985   14.7918 C.3     1  UNL1        0.0237
      8 C          63.7569   89.7457   16.2906 C.3     1  UNL1        0.0019
      9 C          63.2356   90.9196   15.5157 C.3     1  UNL1        0.0019
     10 C          64.2858   88.3286   14.5604 C.3     1  UNL1        0.0866
     11 C          63.7380   87.1537   15.3152 C.2     1  UNL1        0.2257
     12 O          63.3717   87.2970   16.7627 O.2     1  UNL1       -0.2749
     13 N          63.5564   85.8358   14.6225 N.am    1  UNL1       -0.2794
     14 C          63.9227   85.6925   13.1750 C.3     1  UNL1        0.0948
     15 C          63.7411   84.3745   12.4823 C.3     1  UNL1        0.0375
     16 C          63.1933   83.1997   13.2370 C.3     1  UNL1        0.0609
     17 C          62.8270   83.3429   14.6845 C.3     1  UNL1        0.0375
     18 C          63.0086   84.6609   15.3773 C.3     1  UNL1        0.0948
     19 N          63.0118   81.8816   12.5443 N.3     1  UNL1       -0.2738
     20 C          63.2854   81.7631   11.0743 C.3     1  UNL1        0.0720
     21 C          63.1038   80.4450   10.3816 C.3     1  UNL1        0.0174
     22 C          62.6487   79.2457   11.1588 C.3     1  UNL1        0.0029
     23 C          62.3750   79.3642   12.6289 C.3     1  UNL1        0.0174
     24 C          62.5566   80.6823   13.3217 C.3     1  UNL1        0.0720
     25 S          65.5811   91.6604   13.4925 S.O2    1  UNL1        0.0632
     26 O          64.9934   93.0368   13.3926 O.2     1  UNL1       -0.1528
     27 O          66.3476   90.5786   13.7471 O.2     1  UNL1       -0.1528
     28 C          66.7445   92.2129   14.2613 C.ar    1  UNL1        0.1222
     29 C          66.5186   92.8864   15.5825 C.ar    1  UNL1        0.0208
     30 C          67.6820   93.4389   16.3513 C.ar    1  UNL1        0.0128
     31 C          69.0713   93.3180   15.7990 C.ar    1  UNL1        0.0578
     32 CL         70.2348   93.8705   16.5679 Cl      1  UNL1       -0.0822
     33 C          69.2973   92.6445   14.4780 C.ar    1  UNL1        0.0128
     34 C          68.1339   92.0919   13.7090 C.ar    1  UNL1        0.0208
     35 C          66.5443   92.1401   10.4013 C.3     1  UNL1        0.0015
     36 C          65.1150   92.5173   10.6554 C.3     1  UNL1        0.0177
@<TRIPOS>BOND
     1    35    36    1
     2     1    36    1
     3     1     2    1
     4     2     3    1
     5     3     4    1
     6     4     5    1
     7     5     7    1
     8     7    10    1
     9    10    11    1
    10    11    12    2
    11    11    13   am
    12    13    14    1
    13    14    15    1
    14    15    16    1
    15    16    19    1
    16    19    20    1
    17    20    21    1
    18    21    22    1
    19    22    23    1
    20    23    24    1
    21    16    17    1
    22    17    18    1
    23     7     8    1
    24     8     9    1
    25     5     6    1
    26     6    25    1
    27    25    26    2
    28    25    27    2
    29    25    28    1
    30    28    29   ar
    31    29    30   ar
    32    30    31   ar
    33    31    32    1
    34    31    33   ar
    35    33    34   ar
    36     6     1    1
    37    34    28   ar
    38     9     7    1
    39    18    13    1
    40    24    19    1
@<TRIPOS>MOLECULE
*****
 36 40 0 0 0
SMALL
GASTEIGER

@<TRIPOS>ATOM
      1 C          63.9596   95.1557   -0.1565 C.3     1  UNL1        0.0795
      2 C          64.4645   96.0399   -1.2580 C.3     1  UNL1        0.0178
      3 C          63.4941   96.7271   -2.1724 C.3     1  UNL1        0.0029
      4 C          62.0189   96.5300   -1.9854 C.3     1  UNL1        0.0178
      5 C          61.5141   95.6458   -0.8840 C.3     1  UNL1        0.0799
      6 N          62.4845   94.9586    0.0305 N.3     1  UNL1       -0.1583
      7 C          60.0389   95.4487   -0.6969 C.3     1  UNL1        0.0237
      8 C          58.6456   95.6433   -0.1764 C.3     1  UNL1        0.0019
      9 C          59.7625   96.5081    0.3284 C.3     1  UNL1        0.0019
     10 C          59.8031   94.3208   -1.6572 C.3     1  UNL1        0.0866
     11 C          59.3383   94.6098   -3.0539 C.2     1  UNL1        0.2257
     12 O          60.3185   94.5926   -4.1892 O.2     1  UNL1       -0.2749
     13 N          57.8933   94.9160   -3.3151 N.am    1  UNL1       -0.2794
     14 C          56.9131   94.9332   -2.1798 C.3     1  UNL1        0.0948
     15 C          55.4681   95.2394   -2.4412 C.3     1  UNL1        0.0375
     16 C          55.0033   95.5283   -3.8377 C.3     1  UNL1        0.0609
     17 C          55.9834   95.5111   -4.9730 C.3     1  UNL1        0.0375
     18 C          57.4285   95.2050   -4.7118 C.3     1  UNL1        0.0948
     19 N          53.5583   95.8345   -4.0990 N.3     1  UNL1       -0.2738
     20 C          52.5766   95.8436   -2.9649 C.3     1  UNL1        0.0720
     21 C          51.1316   96.1498   -3.2262 C.3     1  UNL1        0.0174
     22 C          50.6683   96.4469   -4.6214 C.3     1  UNL1        0.0029
     23 C          51.6500   96.4378   -5.7557 C.3     1  UNL1        0.0174
     24 C          53.0950   96.1317   -5.4943 C.3     1  UNL1        0.0720
     25 S          61.9796   94.0743    1.1320 S.O2    1  UNL1        0.0632
     26 O          62.0639   92.8879    0.2181 O.2     1  UNL1       -0.1528
     27 O          61.7960   94.9179    2.1699 O.2     1  UNL1       -0.1528
     28 C          61.4747   93.1900    2.2334 C.ar    1  UNL1        0.1222
     29 C          62.3792   92.1597    2.8422 C.ar    1  UNL1        0.0208
     30 C          61.8743   91.2754    3.9436 C.ar    1  UNL1        0.0128
     31 C          60.4650   91.4214    4.4362 C.ar    1  UNL1        0.0578
     32 CL         59.9602   90.5371    5.5376 Cl      1  UNL1       -0.0822
     33 C          59.5606   92.4516    3.8275 C.ar    1  UNL1        0.0128
     34 C          60.0655   93.3360    2.7260 C.ar    1  UNL1        0.0208
     35 C          65.4267   93.0923    0.4270 C.3     1  UNL1        0.0015
     36 C          64.9300   94.4685    0.7579 C.3     1  UNL1        0.0177
@<TRIPOS>BOND
     1    35    36    1
     2     1    36    1
     3     1     2    1
     4     2     3    1
     5     3     4    1
     6     4     5    1
     7     5     7    1
     8     7    10    1
     9    10    11    1
    10    11    12    2
    11    11    13   am
    12    13    14    1
    13    14    15    1
    14    15    16    1
    15    16    19    1
    16    19    20    1
    17    20    21    1
    18    21    22    1
    19    22    23    1
    20    23    24    1
    21    16    17    1
    22    17    18    1
    23     7     8    1
    24     8     9    1
    25     5     6    1
    26     6    25    1
    27    25    26    2
    28    25    27    2
    29    25    28    1
    30    28    29   ar
    31    29    30   ar
    32    30    31   ar
    33    31    32    1
    34    31    33   ar
    35    33    34   ar
    36     6     1    1
    37    34    28   ar
    38     9     7    1
    39    18    13    1
    40    24    19    1
