@<TRIPOS>MOLECULE
*****
 45 49 0 0 0
SMALL
GASTEIGER

@<TRIPOS>ATOM
      1 C          60.4491   89.0195   10.7477 C.3     1  UNL1        0.1443
      2 O          59.7366   88.3959   11.9111 O.3     1  UNL1       -0.3813
      3 H          59.9298   88.9005   12.7167 H       1  UNL1        0.2105
      4 C          60.3127   88.4236    9.3779 C.3     1  UNL1        0.1041
      5 C          59.2938   89.0949    7.0842 C.2     1  UNL1        0.2527
      6 O          58.2903   87.9866    7.2056 O.2     1  UNL1       -0.2724
      7 N          60.3050   89.3134    8.1703 N.am    1  UNL1       -0.3012
      8 H          60.9636   90.0408    8.0906 H       1  UNL1        0.1495
      9 C          59.2861   89.9847    5.8766 C.3     1  UNL1        0.2269
     10 C          57.5842   91.6104    4.7763 C.3     1  UNL1        0.1748
     11 O          58.5194   91.2738    5.8997 O.3     1  UNL1       -0.3418
     12 C          60.1842   86.9380    9.2157 C.3     1  UNL1        0.0484
     13 C          61.3372   86.0432    9.5617 C.ar    1  UNL1       -0.0204
     14 C          62.2326   85.5206    8.4776 C.ar    1  UNL1       -0.0042
     15 C          63.3857   84.6258    8.8236 C.ar    1  UNL1       -0.0002
     16 C          63.6434   84.2535   10.2536 C.ar    1  UNL1        0.0030
     17 C          62.7480   84.7761   11.3377 C.ar    1  UNL1        0.0338
     18 C          61.5949   85.6709   10.9918 C.ar    1  UNL1       -0.0012
     19 C          63.0057   84.4038   12.7677 C.ar    1  UNL1        0.1439
     20 N          63.4864   85.3284   13.8466 N.ar    1  UNL1       -0.2252
     21 C          63.6057   84.5376   15.1156 C.ar    1  UNL1        0.1192
     22 C          63.1988   83.1243   14.8210 C.ar    1  UNL1        0.0980
     23 N          62.8279   83.0416   13.3699 N.ar    1  UNL1       -0.3082
     24 C          62.3613   81.8125   12.6479 C.3     1  UNL1        0.1320
     25 C          61.2979   90.2389   10.9541 C.3     1  UNL1        0.1001
     26 N          62.7781   90.0978   11.1515 N.3     1  UNL1       -0.2928
     27 H          63.2264   90.5905   10.3790 H       1  UNL1        0.1236
     28 C          63.4175   90.5973   12.4131 C.3     1  UNL1        0.0849
     29 C          63.0580   89.9793   13.7317 C.3     1  UNL1        0.0604
     30 C          63.6974   90.4788   14.9933 C.3     1  UNL1        0.1363
     31 C          62.7743   89.3816   15.4340 C.3     1  UNL1        0.0402
     32 C          63.1890   89.6047   16.8582 C.3     1  UNL1        0.0072
     33 C          64.1121   90.7020   16.4175 C.3     1  UNL1        0.0402
     34 O          64.6963   91.5963   14.9362 O.3     1  UNL1       -0.4676
     35 C          65.0558   92.2143   13.6176 C.ar    1  UNL1        0.2216
     36 N          66.0548   93.3319   13.5606 N.ar    1  UNL1       -0.2107
     37 C          66.4143   93.9499   12.2420 C.ar    1  UNL1        0.0977
     38 C          65.7748   93.4504   10.9803 C.ar    1  UNL1       -0.0031
     39 C          64.7759   92.3329   11.0374 C.ar    1  UNL1       -0.0011
     40 C          64.4164   91.7148   12.3560 C.ar    1  UNL1        0.0449
     41 C          66.1343   94.0684    9.6617 C.3     1  UNL1        0.0279
     42 C          66.6885   95.4615    9.6125 C.3     1  UNL1        0.0041
     43 C          68.0016   94.9220    9.1284 C.3     1  UNL1        0.0003
     44 C          65.3752   96.0010   10.0968 C.3     1  UNL1        0.0003
     45 C          67.2426   96.8545    9.5634 C.3     1  UNL1        0.0003
@<TRIPOS>BOND
     1    10    11    1
     2    11     9    1
     3     9     5    1
     4     5     6    2
     5     5     7   am
     6     7     4    1
     7     4    12    1
     8    12    13    1
     9    13    14   ar
    10    14    15   ar
    11    15    16   ar
    12    16    17   ar
    13    17    19    1
    14    19    20   ar
    15    20    21   ar
    16    21    22   ar
    17    22    23   ar
    18    23    24    1
    19    17    18   ar
    20     4     1    1
    21     1     2    1
    22     1    25    1
    23    25    26    1
    24    28    26    1
    25    28    29    1
    26    29    30    1
    27    30    31    1
    28    31    32    1
    29    32    33    1
    30    30    34    1
    31    34    35    1
    32    35    36   ar
    33    36    37   ar
    34    37    38   ar
    35    38    41    1
    36    41    42    1
    37    42    43    1
    38    42    44    1
    39    42    45    1
    40    38    39   ar
    41    39    40   ar
    42    18    13   ar
    43    40    28    1
    44    23    19   ar
    45    33    30    1
    46    40    35   ar
    47     7     8    1
    48     2     3    1
    49    26    27    1
@<TRIPOS>MOLECULE
*****
 45 49 0 0 0
SMALL
GASTEIGER

@<TRIPOS>ATOM
      1 C          60.8126   89.7292   11.7002 C.3     1  UNL1        0.1443
      2 O          59.6009   90.5905   11.8995 O.3     1  UNL1       -0.3813
      3 H          58.8309   90.1648   11.4912 H       1  UNL1        0.2105
      4 C          62.1412   90.1669   12.2416 C.3     1  UNL1        0.1041
      5 C          63.1919   89.2548   14.4357 C.2     1  UNL1        0.2527
      6 O          63.8256   88.1338   13.6663 O.2     1  UNL1       -0.2724
      7 N          62.3498   90.2713   13.7234 N.am    1  UNL1       -0.3012
      8 H          61.9339   91.0070   14.2284 H       1  UNL1        0.1495
      9 C          63.4004   89.3592   15.9175 C.3     1  UNL1        0.2269
     10 C          64.1888   91.7485   16.5652 C.3     1  UNL1        0.1748
     11 O          63.1559   90.6622   16.6193 O.3     1  UNL1       -0.3418
     12 C          63.2613   90.5001   11.3013 C.3     1  UNL1        0.0484
     13 C          64.2920   91.5171   11.6930 C.ar    1  UNL1       -0.0204
     14 C          64.9151   91.4666   13.0565 C.ar    1  UNL1       -0.0042
     15 C          65.9458   92.4836   13.4482 C.ar    1  UNL1       -0.0002
     16 C          66.3533   93.5512   12.4765 C.ar    1  UNL1        0.0030
     17 C          65.7301   93.6017   11.1129 C.ar    1  UNL1        0.0338
     18 C          64.6995   92.5847   10.7212 C.ar    1  UNL1       -0.0012
     19 C          66.1376   94.6692   10.1412 C.ar    1  UNL1        0.1439
     20 N          65.5017   96.0202    9.9977 N.ar    1  UNL1       -0.2252
     21 C          66.2236   96.7591    8.9102 C.ar    1  UNL1        0.1192
     22 C          67.3057   95.8649    8.3816 C.ar    1  UNL1        0.0980
     23 N          67.2525   94.5733    9.1424 N.ar    1  UNL1       -0.3082
     24 C          68.1557   93.3930    8.9399 C.3     1  UNL1        0.1320
     25 C          60.6957   88.4301   10.9593 C.3     1  UNL1        0.1001
     26 N          61.2897   87.1804   11.5384 N.3     1  UNL1       -0.2928
     27 H          60.5446   86.7116   12.0536 H       1  UNL1        0.1236
     28 C          61.9037   86.1529   10.6342 C.3     1  UNL1        0.0849
     29 C          61.5683   86.1443    9.1722 C.3     1  UNL1        0.0604
     30 C          62.1822   85.1169    8.2680 C.3     1  UNL1        0.1363
     31 C          61.3069   85.9461    7.3756 C.3     1  UNL1        0.0402
     32 C          61.7080   85.1046    6.2003 C.3     1  UNL1        0.0072
     33 C          62.5833   84.2754    7.0928 C.3     1  UNL1        0.0402
     34 O          63.1315   84.0982    8.8258 O.3     1  UNL1       -0.4676
     35 C          63.4668   84.1069   10.2878 C.ar    1  UNL1        0.2216
     36 N          64.4161   83.0882   10.8456 N.ar    1  UNL1       -0.2107
     37 C          64.7514   83.0969   12.3076 C.ar    1  UNL1        0.0977
     38 C          64.1375   84.1243   13.2118 C.ar    1  UNL1       -0.0031
     39 C          63.1882   85.1430   12.6540 C.ar    1  UNL1       -0.0011
     40 C          62.8529   85.1343   11.1920 C.ar    1  UNL1        0.0449
     41 C          64.4728   84.1330   14.6739 C.3     1  UNL1        0.0279
     42 C          63.4922   84.6863   15.6650 C.3     1  UNL1        0.0041
     43 C          62.6056   83.4952   15.4528 C.3     1  UNL1        0.0003
     44 C          64.3789   85.8775   15.8772 C.3     1  UNL1        0.0003
     45 C          62.5116   85.2396   16.6560 C.3     1  UNL1        0.0003
@<TRIPOS>BOND
     1    10    11    1
     2    11     9    1
     3     9     5    1
     4     5     6    2
     5     5     7   am
     6     7     4    1
     7     4    12    1
     8    12    13    1
     9    13    14   ar
    10    14    15   ar
    11    15    16   ar
    12    16    17   ar
    13    17    19    1
    14    19    20   ar
    15    20    21   ar
    16    21    22   ar
    17    22    23   ar
    18    23    24    1
    19    17    18   ar
    20     4     1    1
    21     1     2    1
    22     1    25    1
    23    25    26    1
    24    28    26    1
    25    28    29    1
    26    29    30    1
    27    30    31    1
    28    31    32    1
    29    32    33    1
    30    30    34    1
    31    34    35    1
    32    35    36   ar
    33    36    37   ar
    34    37    38   ar
    35    38    41    1
    36    41    42    1
    37    42    43    1
    38    42    44    1
    39    42    45    1
    40    38    39   ar
    41    39    40   ar
    42    18    13   ar
    43    40    28    1
    44    23    19   ar
    45    33    30    1
    46    40    35   ar
    47     7     8    1
    48     2     3    1
    49    26    27    1
@<TRIPOS>MOLECULE
*****
 45 49 0 0 0
SMALL
GASTEIGER

@<TRIPOS>ATOM
      1 C          60.6373   89.7010   11.1252 C.3     1  UNL1        0.1443
      2 O          59.5656   90.5570   11.7324 O.3     1  UNL1       -0.3813
      3 H          59.9085   90.9856   12.5322 H       1  UNL1        0.2105
      4 C          60.3579   88.9263    9.8715 C.3     1  UNL1        0.1041
      5 C          59.4963   89.1248    7.4285 C.2     1  UNL1        0.2527
      6 O          58.6103   87.9337    7.6442 O.2     1  UNL1       -0.2724
      7 N          60.3701   89.6210    8.5422 N.am    1  UNL1       -0.3012
      8 H          60.9516   90.4027    8.4006 H       1  UNL1        0.1495
      9 C          59.5085   89.8195    6.0992 C.3     1  UNL1        0.2269
     10 C          58.5319   91.8241    4.7657 C.3     1  UNL1        0.1748
     11 O          58.3321   90.6480    5.6751 O.3     1  UNL1       -0.3418
     12 C          60.0663   87.4569    9.9472 C.3     1  UNL1        0.0484
     13 C          61.1763   86.4623    9.7775 C.ar    1  UNL1       -0.0204
     14 C          61.8059   86.2636    8.4306 C.ar    1  UNL1       -0.0042
     15 C          62.9159   85.2690    8.2609 C.ar    1  UNL1       -0.0002
     16 C          63.3962   84.4731    9.4381 C.ar    1  UNL1        0.0030
     17 C          62.7666   84.6717   10.7850 C.ar    1  UNL1        0.0338
     18 C          61.6566   85.6663   10.9547 C.ar    1  UNL1       -0.0012
     19 C          63.2469   83.8758   11.9622 C.ar    1  UNL1        0.1439
     20 N          63.6074   84.4257   13.3103 N.ar    1  UNL1       -0.2252
     21 C          64.0344   83.2800   14.1792 C.ar    1  UNL1        0.1192
     22 C          63.9378   82.0220   13.3680 C.ar    1  UNL1        0.0980
     23 N          63.4511   82.3903   11.9978 N.ar    1  UNL1       -0.3082
     24 C          63.2107   81.4398   10.8626 C.3     1  UNL1        0.1320
     25 C          61.9884   89.6196   11.7718 C.3     1  UNL1        0.1001
     26 N          63.1929   90.1646   11.0634 N.3     1  UNL1       -0.2928
     27 H          62.8611   90.5718   10.1890 H       1  UNL1        0.1236
     28 C          64.0478   91.2029   11.7276 C.3     1  UNL1        0.0849
     29 C          64.7437   92.2427   10.9003 C.3     1  UNL1        0.0604
     30 C          65.5985   93.2810   11.5645 C.3     1  UNL1        0.1363
     31 C          65.6767   93.5930   10.0993 C.3     1  UNL1        0.0402
     32 C          66.5827   94.7516   10.3944 C.3     1  UNL1        0.0072
     33 C          66.5045   94.4396   11.8596 C.3     1  UNL1        0.0402
     34 O          65.7574   93.2795   13.0560 O.3     1  UNL1       -0.4676
     35 C          65.0615   92.2396   13.8834 C.ar    1  UNL1        0.2216
     36 N          65.2205   92.2381   15.3750 N.ar    1  UNL1       -0.2107
     37 C          64.5246   91.1983   16.2023 C.ar    1  UNL1        0.0977
     38 C          63.6697   90.1600   15.5380 C.ar    1  UNL1       -0.0031
     39 C          63.5108   90.1615   14.0465 C.ar    1  UNL1       -0.0011
     40 C          64.2067   91.2014   13.2192 C.ar    1  UNL1        0.0449
     41 C          62.9738   89.1202   16.3654 C.3     1  UNL1        0.0279
     42 C          63.4293   87.6919   16.3131 C.3     1  UNL1        0.0041
     43 C          62.6619   87.4013   17.5688 C.3     1  UNL1        0.0003
     44 C          64.1967   87.9825   15.0575 C.3     1  UNL1        0.0003
     45 C          63.8847   86.2637   16.2610 C.3     1  UNL1        0.0003
@<TRIPOS>BOND
     1    10    11    1
     2    11     9    1
     3     9     5    1
     4     5     6    2
     5     5     7   am
     6     7     4    1
     7     4    12    1
     8    12    13    1
     9    13    14   ar
    10    14    15   ar
    11    15    16   ar
    12    16    17   ar
    13    17    19    1
    14    19    20   ar
    15    20    21   ar
    16    21    22   ar
    17    22    23   ar
    18    23    24    1
    19    17    18   ar
    20     4     1    1
    21     1     2    1
    22     1    25    1
    23    25    26    1
    24    28    26    1
    25    28    29    1
    26    29    30    1
    27    30    31    1
    28    31    32    1
    29    32    33    1
    30    30    34    1
    31    34    35    1
    32    35    36   ar
    33    36    37   ar
    34    37    38   ar
    35    38    41    1
    36    41    42    1
    37    42    43    1
    38    42    44    1
    39    42    45    1
    40    38    39   ar
    41    39    40   ar
    42    18    13   ar
    43    40    28    1
    44    23    19   ar
    45    33    30    1
    46    40    35   ar
    47     7     8    1
    48     2     3    1
    49    26    27    1
@<TRIPOS>MOLECULE
*****
 45 49 0 0 0
SMALL
GASTEIGER

@<TRIPOS>ATOM
      1 C          60.5683   89.6331   11.7505 C.3     1  UNL1        0.1443
      2 O          59.5174   90.7008   11.8252 O.3     1  UNL1       -0.3813
      3 H          58.6948   90.3731   11.4293 H       1  UNL1        0.2105
      4 C          61.9404   89.8917   12.2985 C.3     1  UNL1        0.1041
      5 C          63.1235   89.2368   14.5169 C.2     1  UNL1        0.2527
      6 O          63.9176   88.1951   13.7859 O.2     1  UNL1       -0.2724
      7 N          62.1350   90.0851   13.7732 N.am    1  UNL1       -0.3012
      8 H          61.6138   90.7688   14.2530 H       1  UNL1        0.1495
      9 C          63.3181   89.4302   15.9916 C.3     1  UNL1        0.2269
     10 C          64.1363   91.8402   16.5138 C.3     1  UNL1        0.1748
     11 O          63.0826   90.7769   16.6089 O.3     1  UNL1       -0.3418
     12 C          63.1181   89.9568   11.3717 C.3     1  UNL1        0.0484
     13 C          64.0413   91.1382   11.4140 C.ar    1  UNL1       -0.0204
     14 C          64.0431   92.1294   10.2882 C.ar    1  UNL1       -0.0042
     15 C          64.9664   93.3108   10.3306 C.ar    1  UNL1       -0.0002
     16 C          65.8879   93.5011   11.4987 C.ar    1  UNL1        0.0030
     17 C          65.8861   92.5099   12.6246 C.ar    1  UNL1        0.0338
     18 C          64.9628   91.3285   12.5823 C.ar    1  UNL1       -0.0012
     19 C          66.8076   92.7002   13.7928 C.ar    1  UNL1        0.1439
     20 N          66.4597   93.3668   15.0907 N.ar    1  UNL1       -0.2252
     21 C          67.6758   93.3358   15.9682 C.ar    1  UNL1        0.1192
     22 C          68.7753   92.6501   15.2127 C.ar    1  UNL1        0.0980
     23 N          68.2386   92.2572   13.8682 N.ar    1  UNL1       -0.3082
     24 C          68.9995   91.5462   12.7886 C.3     1  UNL1        0.1320
     25 C          60.2470   88.3067   11.1279 C.3     1  UNL1        0.1001
     26 N          60.8920   87.0572   11.6499 N.3     1  UNL1       -0.2928
     27 H          60.1591   86.5181   12.1112 H       1  UNL1        0.1236
     28 C          61.5885   86.1221   10.7061 C.3     1  UNL1        0.0849
     29 C          61.2568   86.1482    9.2435 C.3     1  UNL1        0.0604
     30 C          61.9533   85.2132    8.2998 C.3     1  UNL1        0.1363
     31 C          61.0147   86.0057    7.4389 C.3     1  UNL1        0.0402
     32 C          61.4842   85.2500    6.2312 C.3     1  UNL1        0.0072
     33 C          62.4228   84.4575    7.0920 C.3     1  UNL1        0.0402
     34 O          62.9814   84.2521    8.8187 O.3     1  UNL1       -0.4676
     35 C          63.3130   84.2260   10.2813 C.ar    1  UNL1        0.2216
     36 N          64.3412   83.2649   10.8002 N.ar    1  UNL1       -0.2107
     37 C          64.6728   83.2388   12.2629 C.ar    1  UNL1        0.0977
     38 C          63.9763   84.1739   13.2066 C.ar    1  UNL1       -0.0031
     39 C          62.9482   85.1350   12.6877 C.ar    1  UNL1       -0.0011
     40 C          62.6166   85.1610   11.2251 C.ar    1  UNL1        0.0449
     41 C          64.3080   84.1478   14.6693 C.3     1  UNL1        0.0279
     42 C          63.3815   84.7884   15.6599 C.3     1  UNL1        0.0041
     43 C          62.4060   83.6641   15.4746 C.3     1  UNL1        0.0003
     44 C          64.3570   85.9128   15.8452 C.3     1  UNL1        0.0003
     45 C          62.4550   85.4290   16.6505 C.3     1  UNL1        0.0003
@<TRIPOS>BOND
     1    10    11    1
     2    11     9    1
     3     9     5    1
     4     5     6    2
     5     5     7   am
     6     7     4    1
     7     4    12    1
     8    12    13    1
     9    13    14   ar
    10    14    15   ar
    11    15    16   ar
    12    16    17   ar
    13    17    19    1
    14    19    20   ar
    15    20    21   ar
    16    21    22   ar
    17    22    23   ar
    18    23    24    1
    19    17    18   ar
    20     4     1    1
    21     1     2    1
    22     1    25    1
    23    25    26    1
    24    28    26    1
    25    28    29    1
    26    29    30    1
    27    30    31    1
    28    31    32    1
    29    32    33    1
    30    30    34    1
    31    34    35    1
    32    35    36   ar
    33    36    37   ar
    34    37    38   ar
    35    38    41    1
    36    41    42    1
    37    42    43    1
    38    42    44    1
    39    42    45    1
    40    38    39   ar
    41    39    40   ar
    42    18    13   ar
    43    40    28    1
    44    23    19   ar
    45    33    30    1
    46    40    35   ar
    47     7     8    1
    48     2     3    1
    49    26    27    1
@<TRIPOS>MOLECULE
*****
 45 49 0 0 0
SMALL
GASTEIGER

@<TRIPOS>ATOM
      1 C          60.4801   88.8711   11.5083 C.3     1  UNL1        0.1443
      2 O          59.3256   88.6066   12.4288 O.3     1  UNL1       -0.3813
      3 H          58.9921   89.4475   12.7790 H       1  UNL1        0.2105
      4 C          61.1775   87.7280   10.8324 C.3     1  UNL1        0.1041
      5 C          59.9653   87.3902    8.5594 C.2     1  UNL1        0.2527
      6 O          60.2597   88.8141    8.1907 O.2     1  UNL1       -0.2724
      7 N          60.4241   86.8472    9.8802 N.am    1  UNL1       -0.3012
      8 H          60.2309   85.9127   10.1222 H       1  UNL1        0.1495
      9 C          59.2119   86.5094    7.6073 C.3     1  UNL1        0.2269
     10 C          61.3741   85.1880    7.0337 C.3     1  UNL1        0.1748
     11 O          59.8787   85.3043    7.0130 O.3     1  UNL1       -0.3418
     12 C          62.6283   87.4658   11.1086 C.3     1  UNL1        0.0484
     13 C          63.0252   86.5577   12.2346 C.ar    1  UNL1       -0.0204
     14 C          63.7652   87.1086   13.4173 C.ar    1  UNL1       -0.0042
     15 C          64.1621   86.2006   14.5433 C.ar    1  UNL1       -0.0002
     16 C          63.8189   84.7415   14.4866 C.ar    1  UNL1        0.0030
     17 C          63.0789   84.1904   13.3039 C.ar    1  UNL1        0.0338
     18 C          62.6820   85.0985   12.1779 C.ar    1  UNL1       -0.0012
     19 C          62.7357   82.7313   13.2472 C.ar    1  UNL1        0.1439
     20 N          61.9138   81.9793   14.2516 N.ar    1  UNL1       -0.2252
     21 C          61.8243   80.5512   13.8014 C.ar    1  UNL1        0.1192
     22 C          62.5910   80.4207   12.5188 C.ar    1  UNL1        0.0980
     23 N          63.1542   81.7681   12.1763 N.ar    1  UNL1       -0.3082
     24 C          63.9894   82.0949   10.9740 C.3     1  UNL1        0.1320
     25 C          60.9371   90.2788   11.2637 C.3     1  UNL1        0.1001
     26 N          62.4004   90.5795   11.1289 N.3     1  UNL1       -0.2928
     27 H          62.4796   91.3836   10.5064 H       1  UNL1        0.1236
     28 C          63.2170   90.8931   12.3474 C.3     1  UNL1        0.0849
     29 C          62.8596   90.2786   13.6683 C.3     1  UNL1        0.0604
     30 C          63.6762   90.5921   14.8868 C.3     1  UNL1        0.1363
     31 C          62.6107   89.6508   15.3652 C.3     1  UNL1        0.0402
     32 C          63.1706   89.7232   16.7549 C.3     1  UNL1        0.0072
     33 C          64.2361   90.6645   16.2766 C.3     1  UNL1        0.0402
     34 O          64.8502   91.5201   14.7845 O.3     1  UNL1       -0.4676
     35 C          65.2076   92.1345   13.4636 C.ar    1  UNL1        0.2216
     36 N          66.3818   93.0625   13.3613 N.ar    1  UNL1       -0.2107
     37 C          66.7392   93.6769   12.0404 C.ar    1  UNL1        0.0977
     38 C          65.9225   93.3634   10.8219 C.ar    1  UNL1       -0.0031
     39 C          64.7485   92.4354   10.9242 C.ar    1  UNL1       -0.0011
     40 C          64.3911   91.8210   12.2451 C.ar    1  UNL1        0.0449
     41 C          66.2800   93.9778    9.5010 C.3     1  UNL1        0.0279
     42 C          66.7317   95.4067    9.4362 C.3     1  UNL1        0.0041
     43 C          67.9934   94.9767    8.7485 C.3     1  UNL1        0.0003
     44 C          65.4698   95.8368   10.1240 C.3     1  UNL1        0.0003
     45 C          67.1833   96.8356    9.3714 C.3     1  UNL1        0.0003
@<TRIPOS>BOND
     1    10    11    1
     2    11     9    1
     3     9     5    1
     4     5     6    2
     5     5     7   am
     6     7     4    1
     7     4    12    1
     8    12    13    1
     9    13    14   ar
    10    14    15   ar
    11    15    16   ar
    12    16    17   ar
    13    17    19    1
    14    19    20   ar
    15    20    21   ar
    16    21    22   ar
    17    22    23   ar
    18    23    24    1
    19    17    18   ar
    20     4     1    1
    21     1     2    1
    22     1    25    1
    23    25    26    1
    24    28    26    1
    25    28    29    1
    26    29    30    1
    27    30    31    1
    28    31    32    1
    29    32    33    1
    30    30    34    1
    31    34    35    1
    32    35    36   ar
    33    36    37   ar
    34    37    38   ar
    35    38    41    1
    36    41    42    1
    37    42    43    1
    38    42    44    1
    39    42    45    1
    40    38    39   ar
    41    39    40   ar
    42    18    13   ar
    43    40    28    1
    44    23    19   ar
    45    33    30    1
    46    40    35   ar
    47     7     8    1
    48     2     3    1
    49    26    27    1
@<TRIPOS>MOLECULE
*****
 45 49 0 0 0
SMALL
GASTEIGER

@<TRIPOS>ATOM
      1 C          61.9255   90.0135   12.1836 C.3     1  UNL1        0.1443
      2 O          62.1283   90.9294   11.0132 O.3     1  UNL1       -0.3813
      3 H          61.3074   90.9843   10.4995 H       1  UNL1        0.2105
      4 C          63.0524   89.7580   13.1401 C.3     1  UNL1        0.1041
      5 C          63.8550   87.7975   14.6442 C.2     1  UNL1        0.2527
      6 O          63.5260   88.6012   15.8673 O.2     1  UNL1       -0.2724
      7 N          63.6181   88.3760   13.2806 N.am    1  UNL1       -0.3012
      8 H          63.8341   87.8485   12.4779 H       1  UNL1        0.1495
      9 C          64.4207   86.4155   14.7847 C.3     1  UNL1        0.2269
     10 C          62.8196   85.3067   16.5044 C.3     1  UNL1        0.1748
     11 O          64.2100   85.6442   16.0539 O.3     1  UNL1       -0.3418
     12 C          63.6134   90.8847   13.9561 C.3     1  UNL1        0.0484
     13 C          65.0324   91.3253   13.7508 C.ar    1  UNL1       -0.0204
     14 C          66.0173   91.2322   14.8783 C.ar    1  UNL1       -0.0042
     15 C          67.4363   91.6729   14.6730 C.ar    1  UNL1       -0.0002
     16 C          67.8705   92.2066   13.3401 C.ar    1  UNL1        0.0030
     17 C          66.8856   92.2997   12.2125 C.ar    1  UNL1        0.0338
     18 C          65.4666   91.8590   12.4178 C.ar    1  UNL1       -0.0012
     19 C          67.3198   92.8334   10.8796 C.ar    1  UNL1        0.1439
     20 N          68.1773   92.1161    9.8795 N.ar    1  UNL1       -0.2252
     21 C          68.3602   93.0175    8.6946 C.ar    1  UNL1        0.1192
     22 C          67.6158   94.2918    8.9624 C.ar    1  UNL1        0.0980
     23 N          66.9728   94.1780   10.3128 N.ar    1  UNL1       -0.3082
     24 C          66.1306   95.2251   10.9793 C.3     1  UNL1        0.1320
     25 C          60.5958   89.3530   12.3975 C.3     1  UNL1        0.1001
     26 N          60.3636   87.9566   11.9014 N.3     1  UNL1       -0.2928
     27 H          59.3993   87.7183   12.1335 H       1  UNL1        0.1236
     28 C          60.5512   87.6360   10.4481 C.3     1  UNL1        0.0849
     29 C          59.8669   88.4660    9.4026 C.3     1  UNL1        0.0604
     30 C          60.0545   88.1455    7.9494 C.3     1  UNL1        0.1363
     31 C          59.1382   89.3329    7.9699 C.3     1  UNL1        0.0402
     32 C          59.0868   89.3192    6.4708 C.3     1  UNL1        0.0072
     33 C          60.0032   88.1318    6.4502 C.3     1  UNL1        0.0402
     34 O          60.9263   86.9950    7.5416 O.3     1  UNL1       -0.4676
     35 C          61.6105   86.1650    8.5871 C.ar    1  UNL1        0.2216
     36 N          62.4824   85.0145    8.1792 N.ar    1  UNL1       -0.2107
     37 C          63.1666   84.1846    9.2247 C.ar    1  UNL1        0.0977
     38 C          62.9790   84.5051   10.6780 C.ar    1  UNL1       -0.0031
     39 C          62.1072   85.6556   11.0858 C.ar    1  UNL1       -0.0011
     40 C          61.4230   86.4856   10.0403 C.ar    1  UNL1        0.0449
     41 C          63.6632   83.6752   11.7235 C.3     1  UNL1        0.0279
     42 C          62.9482   82.5114   12.3436 C.3     1  UNL1        0.0041
     43 C          63.2370   81.6850   11.1256 C.3     1  UNL1        0.0003
     44 C          62.6594   83.3379   13.5617 C.3     1  UNL1        0.0003
     45 C          62.2333   81.3477   12.9637 C.3     1  UNL1        0.0003
@<TRIPOS>BOND
     1    10    11    1
     2    11     9    1
     3     9     5    1
     4     5     6    2
     5     5     7   am
     6     7     4    1
     7     4    12    1
     8    12    13    1
     9    13    14   ar
    10    14    15   ar
    11    15    16   ar
    12    16    17   ar
    13    17    19    1
    14    19    20   ar
    15    20    21   ar
    16    21    22   ar
    17    22    23   ar
    18    23    24    1
    19    17    18   ar
    20     4     1    1
    21     1     2    1
    22     1    25    1
    23    25    26    1
    24    28    26    1
    25    28    29    1
    26    29    30    1
    27    30    31    1
    28    31    32    1
    29    32    33    1
    30    30    34    1
    31    34    35    1
    32    35    36   ar
    33    36    37   ar
    34    37    38   ar
    35    38    41    1
    36    41    42    1
    37    42    43    1
    38    42    44    1
    39    42    45    1
    40    38    39   ar
    41    39    40   ar
    42    18    13   ar
    43    40    28    1
    44    23    19   ar
    45    33    30    1
    46    40    35   ar
    47     7     8    1
    48     2     3    1
    49    26    27    1
@<TRIPOS>MOLECULE
*****
 45 49 0 0 0
SMALL
GASTEIGER

@<TRIPOS>ATOM
      1 C          60.8807   89.6255    9.6899 C.3     1  UNL1        0.1443
      2 O          60.1175   90.1300    8.5012 O.3     1  UNL1       -0.3813
      3 H          60.4454   91.0094    8.2561 H       1  UNL1        0.2105
      4 C          60.5629   88.2786   10.2686 C.3     1  UNL1        0.1041
      5 C          59.3083   89.2366   12.3321 C.2     1  UNL1        0.2527
      6 O          58.8977   90.4336   11.5267 O.2     1  UNL1       -0.2724
      7 N          60.1409   88.1591   11.7030 N.am    1  UNL1       -0.3012
      8 H          60.4104   87.3735   12.2316 H       1  UNL1        0.1495
      9 C          58.8863   89.1171   13.7665 C.3     1  UNL1        0.2269
     10 C          56.5212   88.1934   13.2159 C.3     1  UNL1        0.1748
     11 O          57.7061   88.2667   14.1327 O.3     1  UNL1       -0.3418
     12 C          60.6672   87.0511    9.4127 C.3     1  UNL1        0.0484
     13 C          61.6978   86.0061    9.7225 C.ar    1  UNL1       -0.0204
     14 C          62.4961   85.3880    8.6133 C.ar    1  UNL1       -0.0042
     15 C          63.5267   84.3430    8.9231 C.ar    1  UNL1       -0.0002
     16 C          63.7589   83.9162   10.3421 C.ar    1  UNL1        0.0030
     17 C          62.9606   84.5343   11.4515 C.ar    1  UNL1        0.0338
     18 C          61.9300   85.5793   11.1417 C.ar    1  UNL1       -0.0012
     19 C          63.1928   84.1075   12.8706 C.ar    1  UNL1        0.1439
     20 N          63.7923   84.9495   13.9576 N.ar    1  UNL1       -0.2252
     21 C          63.8364   84.1261   15.2107 C.ar    1  UNL1        0.1192
     22 C          63.2641   82.7753   14.8980 C.ar    1  UNL1        0.0980
     23 N          62.8664   82.7639   13.4518 N.ar    1  UNL1       -0.3082
     24 C          62.2504   81.6110   12.7160 C.3     1  UNL1        0.1320
     25 C          61.9615   90.4679   10.3000 C.3     1  UNL1        0.1001
     26 N          63.0970   89.8162   11.0322 N.3     1  UNL1       -0.2928
     27 H          63.8892   89.7972   10.3900 H       1  UNL1        0.1236
     28 C          63.5963   90.4049   12.3184 C.3     1  UNL1        0.0849
     29 C          63.1803   89.8054   13.6290 C.3     1  UNL1        0.0604
     30 C          63.6796   90.3941   14.9151 C.3     1  UNL1        0.1363
     31 C          62.8080   89.2447   15.3267 C.3     1  UNL1        0.0402
     32 C          63.0914   89.5462   16.7686 C.3     1  UNL1        0.0072
     33 C          63.9630   90.6956   16.3570 C.3     1  UNL1        0.0402
     34 O          64.5948   91.5822   14.8907 O.3     1  UNL1       -0.4676
     35 C          65.0107   92.1818   13.5801 C.ar    1  UNL1        0.2216
     36 N          65.9259   93.3700   13.5557 N.ar    1  UNL1       -0.2107
     37 C          66.3419   93.9695   12.2451 C.ar    1  UNL1        0.0977
     38 C          65.8426   93.3808   10.9590 C.ar    1  UNL1       -0.0031
     39 C          64.9274   92.1926   10.9834 C.ar    1  UNL1       -0.0011
     40 C          64.5114   91.5931   12.2940 C.ar    1  UNL1        0.0449
     41 C          66.2585   93.9803    9.6484 C.3     1  UNL1        0.0279
     42 C          66.6947   95.4141    9.5843 C.3     1  UNL1        0.0041
     43 C          65.3726   95.8416   10.1493 C.3     1  UNL1        0.0003
     44 C          68.0169   94.9866    9.0193 C.3     1  UNL1        0.0003
     45 C          67.1309   96.8478    9.5203 C.3     1  UNL1        0.0003
@<TRIPOS>BOND
     1    10    11    1
     2    11     9    1
     3     9     5    1
     4     5     6    2
     5     5     7   am
     6     7     4    1
     7     4    12    1
     8    12    13    1
     9    13    14   ar
    10    14    15   ar
    11    15    16   ar
    12    16    17   ar
    13    17    19    1
    14    19    20   ar
    15    20    21   ar
    16    21    22   ar
    17    22    23   ar
    18    23    24    1
    19    17    18   ar
    20     4     1    1
    21     1     2    1
    22     1    25    1
    23    25    26    1
    24    28    26    1
    25    28    29    1
    26    29    30    1
    27    30    31    1
    28    31    32    1
    29    32    33    1
    30    30    34    1
    31    34    35    1
    32    35    36   ar
    33    36    37   ar
    34    37    38   ar
    35    38    41    1
    36    41    42    1
    37    42    43    1
    38    42    44    1
    39    42    45    1
    40    38    39   ar
    41    39    40   ar
    42    18    13   ar
    43    40    28    1
    44    23    19   ar
    45    33    30    1
    46    40    35   ar
    47     7     8    1
    48     2     3    1
    49    26    27    1
@<TRIPOS>MOLECULE
*****
 45 49 0 0 0
SMALL
GASTEIGER

@<TRIPOS>ATOM
      1 C          61.5925   87.6130   10.6584 C.3     1  UNL1        0.1443
      2 O          60.4064   87.5619   11.5753 O.3     1  UNL1       -0.3813
      3 H          60.6120   88.0354   12.3965 H       1  UNL1        0.2105
      4 C          61.5304   86.9502    9.3142 C.3     1  UNL1        0.1041
      5 C          60.0074   88.7055    8.1526 C.2     1  UNL1        0.2527
      6 O          60.7170   89.8058    8.8848 O.2     1  UNL1       -0.2724
      7 N          60.4141   87.2778    8.3673 N.am    1  UNL1       -0.3012
      8 H          59.9484   86.5557    7.8867 H       1  UNL1        0.1495
      9 C          58.8911   89.0331    7.2057 C.3     1  UNL1        0.2269
     10 C          58.4837   90.9796    5.5338 C.3     1  UNL1        0.1748
     11 O          59.1893   89.7074    5.8993 O.3     1  UNL1       -0.3418
     12 C          62.5846   85.9599    8.9169 C.3     1  UNL1        0.0484
     13 C          63.0393   84.9162    9.8936 C.ar    1  UNL1       -0.0204
     14 C          63.7254   83.6765    9.4012 C.ar    1  UNL1       -0.0042
     15 C          64.1801   82.6328   10.3779 C.ar    1  UNL1       -0.0002
     16 C          63.9488   82.8288   11.8469 C.ar    1  UNL1        0.0030
     17 C          63.2628   84.0685   12.3393 C.ar    1  UNL1        0.0338
     18 C          62.8080   85.1122   11.3627 C.ar    1  UNL1       -0.0012
     19 C          63.0315   84.2645   13.8083 C.ar    1  UNL1        0.1439
     20 N          62.1743   83.4038   14.6884 N.ar    1  UNL1       -0.2252
     21 C          62.2298   83.9630   16.0792 C.ar    1  UNL1        0.1192
     22 C          63.1212   85.1691   16.0587 C.ar    1  UNL1        0.0980
     23 N          63.6166   85.3555   14.6552 N.ar    1  UNL1       -0.3082
     24 C          64.5359   86.4421   14.1817 C.3     1  UNL1        0.1320
     25 C          62.8406   88.3269   11.0857 C.3     1  UNL1        0.1001
     26 N          62.8056   89.8018   11.3564 N.3     1  UNL1       -0.2928
     27 H          61.8255   90.0828   11.3304 H       1  UNL1        0.1236
     28 C          63.3777   90.3439   12.6328 C.3     1  UNL1        0.0849
     29 C          62.9635   89.7564   13.9493 C.3     1  UNL1        0.0604
     30 C          63.5356   90.2984   15.2256 C.3     1  UNL1        0.1363
     31 C          62.6065   89.2006   15.6520 C.3     1  UNL1        0.0402
     32 C          62.9498   89.4676   17.0876 C.3     1  UNL1        0.0072
     33 C          63.8789   90.5654   16.6613 C.3     1  UNL1        0.0402
     34 O          64.5218   91.4278   15.1854 O.3     1  UNL1       -0.4676
     35 C          64.9360   92.0153   13.8688 C.ar    1  UNL1        0.2216
     36 N          65.9223   93.1448   13.8286 N.ar    1  UNL1       -0.2107
     37 C          66.3365   93.7322   12.5120 C.ar    1  UNL1        0.0977
     38 C          65.7644   93.1902   11.2357 C.ar    1  UNL1       -0.0031
     39 C          64.7782   92.0607   11.2759 C.ar    1  UNL1       -0.0011
     40 C          64.3640   91.4733   12.5925 C.ar    1  UNL1        0.0449
     41 C          66.1786   93.7776    9.9191 C.3     1  UNL1        0.0279
     42 C          67.5628   93.5379    9.3931 C.3     1  UNL1        0.0041
     43 C          67.5617   92.1719   10.0128 C.3     1  UNL1        0.0003
     44 C          67.5640   94.9040    8.7735 C.3     1  UNL1        0.0003
     45 C          68.9470   93.2981    8.8672 C.3     1  UNL1        0.0003
@<TRIPOS>BOND
     1    10    11    1
     2    11     9    1
     3     9     5    1
     4     5     6    2
     5     5     7   am
     6     7     4    1
     7     4    12    1
     8    12    13    1
     9    13    14   ar
    10    14    15   ar
    11    15    16   ar
    12    16    17   ar
    13    17    19    1
    14    19    20   ar
    15    20    21   ar
    16    21    22   ar
    17    22    23   ar
    18    23    24    1
    19    17    18   ar
    20     4     1    1
    21     1     2    1
    22     1    25    1
    23    25    26    1
    24    28    26    1
    25    28    29    1
    26    29    30    1
    27    30    31    1
    28    31    32    1
    29    32    33    1
    30    30    34    1
    31    34    35    1
    32    35    36   ar
    33    36    37   ar
    34    37    38   ar
    35    38    41    1
    36    41    42    1
    37    42    43    1
    38    42    44    1
    39    42    45    1
    40    38    39   ar
    41    39    40   ar
    42    18    13   ar
    43    40    28    1
    44    23    19   ar
    45    33    30    1
    46    40    35   ar
    47     7     8    1
    48     2     3    1
    49    26    27    1
@<TRIPOS>MOLECULE
*****
 45 49 0 0 0
SMALL
GASTEIGER

@<TRIPOS>ATOM
      1 C          62.5281   88.1969   12.1902 C.3     1  UNL1        0.1443
      2 O          63.8435   88.0329   12.8922 O.3     1  UNL1       -0.3813
      3 H          63.8169   87.2379   13.4473 H       1  UNL1        0.2105
      4 C          62.3110   89.3579   11.2657 C.3     1  UNL1        0.1041
      5 C          60.5182   89.1720    9.3945 C.2     1  UNL1        0.2527
      6 O          59.4419   89.4697   10.3961 O.2     1  UNL1       -0.2724
      7 N          61.9526   89.1161    9.8293 N.am    1  UNL1       -0.3012
      8 H          62.6590   88.9207    9.1719 H       1  UNL1        0.1495
      9 C          60.1599   88.9301    7.9581 C.3     1  UNL1        0.2269
     10 C          59.1291   90.1058    5.8832 C.3     1  UNL1        0.1748
     11 O          59.0395   89.7007    7.3246 O.3     1  UNL1       -0.3418
     12 C          62.4521   90.7608   11.7775 C.3     1  UNL1        0.0484
     13 C          63.8072   91.2964   12.1337 C.ar    1  UNL1       -0.0204
     14 C          64.3447   91.1135   13.5221 C.ar    1  UNL1       -0.0042
     15 C          65.6998   91.6491   13.8783 C.ar    1  UNL1       -0.0002
     16 C          66.5174   92.3676   12.8462 C.ar    1  UNL1        0.0030
     17 C          65.9799   92.5505   11.4578 C.ar    1  UNL1        0.0338
     18 C          64.6248   92.0149   11.1015 C.ar    1  UNL1       -0.0012
     19 C          66.7974   93.2690   10.4257 C.ar    1  UNL1        0.1439
     20 N          67.7575   92.6349    9.4634 N.ar    1  UNL1       -0.2252
     21 C          68.3519   93.7218    8.6176 C.ar    1  UNL1        0.1192
     22 C          67.7591   95.0276    9.0572 C.ar    1  UNL1        0.0980
     23 N          66.7984   94.7478   10.1746 N.ar    1  UNL1       -0.3082
     24 C          65.9820   95.7678   10.9116 C.3     1  UNL1        0.1320
     25 C          61.4298   87.1998   12.4129 C.3     1  UNL1        0.1001
     26 N          60.7976   86.5066   11.2425 N.3     1  UNL1       -0.2928
     27 H          60.3759   87.2323   10.6630 H       1  UNL1        0.1236
     28 C          61.6344   85.6573   10.3322 C.3     1  UNL1        0.0849
     29 C          61.4137   85.7047    8.8493 C.3     1  UNL1        0.0604
     30 C          62.2504   84.8556    7.9390 C.3     1  UNL1        0.1363
     31 C          61.3209   85.6018    7.0282 C.3     1  UNL1        0.0402
     32 C          61.9382   84.9225    5.8417 C.3     1  UNL1        0.0072
     33 C          62.8677   84.1763    6.7525 C.3     1  UNL1        0.0402
     34 O          63.3079   83.9590    8.5116 O.3     1  UNL1       -0.4676
     35 C          63.5286   83.9117    9.9945 C.ar    1  UNL1        0.2216
     36 N          64.5862   83.0151   10.5671 N.ar    1  UNL1       -0.2107
     37 C          64.8070   82.9677   12.0500 C.ar    1  UNL1        0.0977
     38 C          63.9701   83.8170   12.9603 C.ar    1  UNL1       -0.0031
     39 C          62.9126   84.7135   12.3877 C.ar    1  UNL1       -0.0011
     40 C          62.6919   84.7608   10.9048 C.ar    1  UNL1        0.0449
     41 C          64.1909   83.7696   14.4432 C.3     1  UNL1        0.0279
     42 C          63.9146   84.9824   15.2817 C.3     1  UNL1        0.0041
     43 C          65.2373   85.5630   14.8775 C.3     1  UNL1        0.0003
     44 C          62.5919   84.4017   15.6859 C.3     1  UNL1        0.0003
     45 C          63.6385   86.1951   16.1201 C.3     1  UNL1        0.0003
@<TRIPOS>BOND
     1    10    11    1
     2    11     9    1
     3     9     5    1
     4     5     6    2
     5     5     7   am
     6     7     4    1
     7     4    12    1
     8    12    13    1
     9    13    14   ar
    10    14    15   ar
    11    15    16   ar
    12    16    17   ar
    13    17    19    1
    14    19    20   ar
    15    20    21   ar
    16    21    22   ar
    17    22    23   ar
    18    23    24    1
    19    17    18   ar
    20     4     1    1
    21     1     2    1
    22     1    25    1
    23    25    26    1
    24    28    26    1
    25    28    29    1
    26    29    30    1
    27    30    31    1
    28    31    32    1
    29    32    33    1
    30    30    34    1
    31    34    35    1
    32    35    36   ar
    33    36    37   ar
    34    37    38   ar
    35    38    41    1
    36    41    42    1
    37    42    43    1
    38    42    44    1
    39    42    45    1
    40    38    39   ar
    41    39    40   ar
    42    18    13   ar
    43    40    28    1
    44    23    19   ar
    45    33    30    1
    46    40    35   ar
    47     7     8    1
    48     2     3    1
    49    26    27    1
