@<TRIPOS>MOLECULE
*****
 41 45 0 0 0
SMALL
GASTEIGER

@<TRIPOS>ATOM
      1 C          64.4168   90.3325   13.6176 C.2     1  UNL1        0.0332
      2 C          64.0904   90.2919   15.0811 C.2     1  UNL1        0.0101
      3 C          63.6401   89.0085   15.7138 C.2     1  UNL1        0.0255
      4 C          63.3138   88.9679   17.1773 C.3     1  UNL1        0.0351
      5 C          63.5162   87.7658   14.8829 C.2     1  UNL1        0.2278
      6 N          63.1001   86.3662   15.2263 N.2     1  UNL1       -0.0345
      7 C          63.1693   85.5419   13.9751 C.2     1  UNL1        0.3649
      8 N          63.6282   86.4320   12.8583 N.2     1  UNL1       -0.0380
      9 C          63.8426   87.8065   13.4194 C.2     1  UNL1        0.2184
     10 C          64.2929   89.0898   12.7868 C.3     1  UNL1        0.1186
     11 C          66.2179   95.4658   11.0867 C.2     1  UNL1        0.2559
     12 O          66.9738   96.4767   11.8970 O.2     1  UNL1       -0.2721
     13 N          65.7676   94.1825   11.7194 N.am    1  UNL1       -0.2740
     14 C          65.0116   93.1716   10.9092 C.3     1  UNL1        0.1149
     15 C          64.5614   91.8883   11.5419 C.3     1  UNL1        0.1121
     16 N          64.8671   91.6159   12.9849 N.pl3   1  UNL1       -0.3070
     17 C          65.6230   92.6267   13.7952 C.3     1  UNL1        0.1121
     18 C          66.0733   93.9101   13.1625 C.3     1  UNL1        0.1149
     19 C          65.9122   95.7382    9.6437 C.3     1  UNL1        0.2272
     20 C          67.9740   94.3276    8.9302 C.3     1  UNL1        0.1748
     21 O          66.8390   95.2413    8.5740 O.3     1  UNL1       -0.3417
     22 C          62.8378   84.0835   13.8606 C.3     1  UNL1        0.2250
     23 C          62.8432   83.4163   12.5172 C.2     1  UNL1        0.0436
     24 C          62.5117   81.9578   12.4028 C.2     1  UNL1        0.0288
     25 C          62.1747   81.1666   13.6318 C.2     1  UNL1        0.0896
     26 N          62.1693   81.8338   14.9752 N.am    1  UNL1       -0.1770
     27 C          62.5008   83.2922   15.0896 C.2     1  UNL1        0.2627
     28 O          62.4954   83.9594   16.4330 O.2     1  UNL1       -0.2719
     29 N          63.1802   84.2074   11.2882 N.pl3   1  UNL1       -0.3329
     30 H          64.1155   84.4502   11.1001 H       1  UNL1        0.1466
     31 C          62.0920   84.6288   10.3457 C.3     1  UNL1        0.1211
     32 C          62.3901   85.5999    9.2420 C.3     1  UNL1        0.1522
     33 O          63.4775   85.3005    8.2530 O.3     1  UNL1       -0.3783
     34 H          63.8847   84.4470    8.4687 H       1  UNL1        0.2109
     35 C          61.6009   86.8703    9.1273 C.ar    1  UNL1        0.0067
     36 C          60.4005   86.9291    8.2298 C.ar    1  UNL1       -0.0018
     37 C          59.6113   88.1995    8.1151 C.ar    1  UNL1        0.0006
     38 C          60.0225   89.4112    8.8978 C.ar    1  UNL1        0.0114
     39 C          61.2230   89.3524    9.7953 C.ar    1  UNL1        0.0574
     40 CL         61.6342   90.5641   10.5780 Cl      1  UNL1       -0.0823
     41 C          62.0122   88.0820    9.9100 C.ar    1  UNL1        0.0095
@<TRIPOS>BOND
     1    20    21    1
     2    21    19    1
     3    19    11    1
     4    11    12    2
     5    11    13   am
     6    13    14    1
     7    14    15    1
     8    15    16    1
     9    16     1    1
    10     1     2    2
    11     2     3    1
    12     3     4    1
    13     3     5    2
    14     5     6    1
    15     6     7    2
    16     7    22    1
    17    22    23    1
    18    23    29    1
    19    29    31    1
    20    31    32    1
    21    32    33    1
    22    32    35    1
    23    35    36   ar
    24    36    37   ar
    25    37    38   ar
    26    38    39   ar
    27    39    40    1
    28    39    41   ar
    29    23    24    2
    30    24    25    1
    31    25    26    2
    32    26    27    1
    33    27    28    2
    34     7     8    1
    35     8     9    2
    36     9    10    1
    37    16    17    1
    38    17    18    1
    39    18    13    1
    40    10     1    1
    41     9     5    1
    42    27    22    1
    43    41    35   ar
    44    29    30    1
    45    33    34    1
@<TRIPOS>MOLECULE
*****
 41 45 0 0 0
SMALL
GASTEIGER

@<TRIPOS>ATOM
      1 C          63.3588   86.1171   14.3871 C.2     1  UNL1        0.0332
      2 C          63.1614   86.6712   15.7669 C.2     1  UNL1        0.0101
      3 C          63.4651   88.1134   16.0466 C.2     1  UNL1        0.0255
      4 C          63.2677   88.6675   17.4265 C.3     1  UNL1        0.0351
      5 C          63.9661   89.0013   14.9463 C.2     1  UNL1        0.2278
      6 N          64.3469   90.4519   14.9221 N.2     1  UNL1       -0.0345
      7 C          64.7797   90.7943   13.5273 C.2     1  UNL1        0.3649
      8 N          64.6663   89.5553   12.6895 N.2     1  UNL1       -0.0380
      9 C          64.1634   88.4471   13.5665 C.2     1  UNL1        0.2184
     10 C          63.8598   87.0050   13.2869 C.3     1  UNL1        0.1186
     11 C          62.1441   80.3488   13.2687 C.2     1  UNL1        0.2559
     12 O          62.7909   79.6581   12.1048 O.2     1  UNL1       -0.2721
     13 N          62.4477   81.7908   13.5483 N.am    1  UNL1       -0.2740
     14 C          61.8009   82.4815   14.7121 C.3     1  UNL1        0.1149
     15 C          62.1046   83.9236   14.9917 C.3     1  UNL1        0.1121
     16 N          63.0551   84.6750   14.1075 N.pl3   1  UNL1       -0.3070
     17 C          63.7019   83.9844   12.9437 C.3     1  UNL1        0.1121
     18 C          63.3982   82.5422   12.6640 C.3     1  UNL1        0.1149
     19 C          61.1936   79.5974   14.1529 C.3     1  UNL1        0.2272
     20 C          58.6516   79.3068   14.6045 C.3     1  UNL1        0.1748
     21 O          59.8586   80.1904   14.4941 O.3     1  UNL1       -0.3417
     22 C          65.2442   92.1395   13.0535 C.3     1  UNL1        0.2250
     23 C          65.1258   92.5061   11.6038 C.2     1  UNL1        0.0436
     24 C          65.5904   93.8514   11.1301 C.2     1  UNL1        0.0288
     25 C          66.1734   94.8301   12.1059 C.2     1  UNL1        0.0896
     26 N          66.2919   94.4635   13.5556 N.am    1  UNL1       -0.1770
     27 C          65.8272   93.1182   14.0293 C.2     1  UNL1        0.2627
     28 O          65.9457   92.7516   15.4790 O.2     1  UNL1       -0.2719
     29 N          64.5428   91.5275   10.6279 N.pl3   1  UNL1       -0.3329
     30 H          65.1228   90.8618   10.1924 H       1  UNL1        0.1466
     31 C          63.0762   91.5631   10.3155 C.3     1  UNL1        0.1211
     32 C          62.1592   90.5311   10.9020 C.3     1  UNL1        0.1522
     33 O          61.7746   90.6056   12.3499 O.3     1  UNL1       -0.3783
     34 H          62.2020   91.3744   12.7589 H       1  UNL1        0.2109
     35 C          61.6267   89.4246   10.0405 C.ar    1  UNL1        0.0067
     36 C          60.4183   89.6571    9.1829 C.ar    1  UNL1       -0.0018
     37 C          59.8858   88.5506    8.3214 C.ar    1  UNL1        0.0006
     38 C          60.5618   87.2116    8.3175 C.ar    1  UNL1        0.0114
     39 C          61.7702   86.9791    9.1752 C.ar    1  UNL1        0.0574
     40 CL         62.4462   85.6400    9.1713 Cl      1  UNL1       -0.0823
     41 C          62.3027   88.0856   10.0367 C.ar    1  UNL1        0.0095
@<TRIPOS>BOND
     1    20    21    1
     2    21    19    1
     3    19    11    1
     4    11    12    2
     5    11    13   am
     6    13    14    1
     7    14    15    1
     8    15    16    1
     9    16     1    1
    10     1     2    2
    11     2     3    1
    12     3     4    1
    13     3     5    2
    14     5     6    1
    15     6     7    2
    16     7    22    1
    17    22    23    1
    18    23    29    1
    19    29    31    1
    20    31    32    1
    21    32    33    1
    22    32    35    1
    23    35    36   ar
    24    36    37   ar
    25    37    38   ar
    26    38    39   ar
    27    39    40    1
    28    39    41   ar
    29    23    24    2
    30    24    25    1
    31    25    26    2
    32    26    27    1
    33    27    28    2
    34     7     8    1
    35     8     9    2
    36     9    10    1
    37    16    17    1
    38    17    18    1
    39    18    13    1
    40    10     1    1
    41     9     5    1
    42    27    22    1
    43    41    35   ar
    44    29    30    1
    45    33    34    1
@<TRIPOS>MOLECULE
*****
 41 45 0 0 0
SMALL
GASTEIGER

@<TRIPOS>ATOM
      1 C          62.9800   85.2127   12.1928 C.2     1  UNL1        0.0332
      2 C          62.3433   86.0833   11.1505 C.2     1  UNL1        0.0101
      3 C          62.4424   87.5762   11.2576 C.2     1  UNL1        0.0255
      4 C          61.8057   88.4469   10.2152 C.3     1  UNL1        0.0351
      5 C          63.1783   88.1984   12.4071 C.2     1  UNL1        0.2278
      6 N          63.4400   89.6288   12.7750 N.2     1  UNL1       -0.0345
      7 C          64.2385   89.6422   14.0447 C.2     1  UNL1        0.3649
      8 N          64.4703   88.2200   14.4616 N.2     1  UNL1       -0.0380
      9 C          63.8150   87.3277   13.4495 C.2     1  UNL1        0.2184
     10 C          63.7158   85.8348   13.3423 C.3     1  UNL1        0.1186
     11 C          62.5835   79.2411   11.7642 C.2     1  UNL1        0.2559
     12 O          62.1157   78.4342   12.9390 O.2     1  UNL1       -0.2721
     13 N          62.6826   80.7340   11.8714 N.am    1  UNL1       -0.2740
     14 C          63.1504   81.5408   10.6966 C.3     1  UNL1        0.1149
     15 C          63.2495   83.0337   10.8037 C.3     1  UNL1        0.1121
     16 N          62.8808   83.7197   12.0857 N.pl3   1  UNL1       -0.3070
     17 C          62.4131   82.9129   13.2604 C.3     1  UNL1        0.1121
     18 C          62.3139   81.4200   13.1533 C.3     1  UNL1        0.1149
     19 C          62.9521   78.5551   10.4822 C.3     1  UNL1        0.2272
     20 C          64.2254   76.5209    9.4869 C.3     1  UNL1        0.1748
     21 O          63.2501   77.0849   10.4771 O.3     1  UNL1       -0.3417
     22 C          64.7207   90.8633   14.7703 C.3     1  UNL1        0.2250
     23 C          65.7107   91.7817   14.1173 C.2     1  UNL1        0.0436
     24 C          66.1927   93.0028   14.8429 C.2     1  UNL1        0.0288
     25 C          65.6849   93.3055   16.2214 C.2     1  UNL1        0.0896
     26 N          64.6949   92.3871   16.8745 N.am    1  UNL1       -0.1770
     27 C          64.2128   91.1660   16.1488 C.2     1  UNL1        0.2627
     28 O          63.2228   90.2476   16.8018 O.2     1  UNL1       -0.2719
     29 N          66.2186   91.4791   12.7387 N.pl3   1  UNL1       -0.3329
     30 H          65.7185   90.8652   12.1537 H       1  UNL1        0.1466
     31 C          67.4884   92.1117   12.2516 C.3     1  UNL1        0.1211
     32 C          67.5677   92.6561   10.8561 C.3     1  UNL1        0.1522
     33 O          68.1056   91.8014    9.7470 O.3     1  UNL1       -0.3783
     34 H          68.3551   90.9331   10.1000 H       1  UNL1        0.2109
     35 C          67.1090   94.0553   10.5697 C.ar    1  UNL1        0.0067
     36 C          66.2888   94.7978   11.5826 C.ar    1  UNL1       -0.0018
     37 C          65.8302   96.1970   11.2962 C.ar    1  UNL1        0.0006
     38 C          66.1916   96.8536    9.9969 C.ar    1  UNL1        0.0114
     39 C          67.0118   96.1111    8.9841 C.ar    1  UNL1        0.0574
     40 CL         67.3733   96.7677    7.6848 Cl      1  UNL1       -0.0823
     41 C          67.4705   94.7119    9.2705 C.ar    1  UNL1        0.0095
@<TRIPOS>BOND
     1    20    21    1
     2    21    19    1
     3    19    11    1
     4    11    12    2
     5    11    13   am
     6    13    14    1
     7    14    15    1
     8    15    16    1
     9    16     1    1
    10     1     2    2
    11     2     3    1
    12     3     4    1
    13     3     5    2
    14     5     6    1
    15     6     7    2
    16     7    22    1
    17    22    23    1
    18    23    29    1
    19    29    31    1
    20    31    32    1
    21    32    33    1
    22    32    35    1
    23    35    36   ar
    24    36    37   ar
    25    37    38   ar
    26    38    39   ar
    27    39    40    1
    28    39    41   ar
    29    23    24    2
    30    24    25    1
    31    25    26    2
    32    26    27    1
    33    27    28    2
    34     7     8    1
    35     8     9    2
    36     9    10    1
    37    16    17    1
    38    17    18    1
    39    18    13    1
    40    10     1    1
    41     9     5    1
    42    27    22    1
    43    41    35   ar
    44    29    30    1
    45    33    34    1
@<TRIPOS>MOLECULE
*****
 41 45 0 0 0
SMALL
GASTEIGER

@<TRIPOS>ATOM
      1 C          60.6834   87.5276    8.1134 C.2     1  UNL1        0.0332
      2 C          61.3930   86.4165    7.3980 C.2     1  UNL1        0.0101
      3 C          62.1536   85.3865    8.1794 C.2     1  UNL1        0.0255
      4 C          62.8632   84.2754    7.4638 C.3     1  UNL1        0.0351
      5 C          62.2046   85.4677    9.6763 C.2     1  UNL1        0.2278
      6 N          62.8696   84.6033   10.7062 N.2     1  UNL1       -0.0345
      7 C          62.5709   85.1803   12.0582 C.2     1  UNL1        0.3649
      8 N          61.7214   86.4012   11.8639 N.2     1  UNL1       -0.0380
      9 C          61.4951   86.5788   10.3918 C.2     1  UNL1        0.2184
     10 C          60.7345   87.6088    9.6103 C.3     1  UNL1        0.1186
     11 C          57.6411   91.6476    4.9877 C.2     1  UNL1        0.2559
     12 O          56.1434   91.5892    4.9288 O.2     1  UNL1       -0.2721
     13 N          58.4017   90.6176    5.7692 N.am    1  UNL1       -0.2740
     14 C          59.8994   90.6760    5.8281 C.3     1  UNL1        0.1149
     15 C          60.6599   89.6460    6.6095 C.3     1  UNL1        0.1121
     16 N          59.9228   88.5576    7.3320 N.pl3   1  UNL1       -0.3070
     17 C          58.4252   88.4992    7.2730 C.3     1  UNL1        0.1121
     18 C          57.6645   89.5292    6.4916 C.3     1  UNL1        0.1149
     19 C          58.3783   92.7361    4.2653 C.3     1  UNL1        0.2272
     20 C          60.3866   93.1351    2.6661 C.3     1  UNL1        0.1748
     21 O          59.1014   92.4313    2.9868 O.3     1  UNL1       -0.3417
     22 C          63.0395   84.6325   13.3737 C.3     1  UNL1        0.2250
     23 C          63.7666   85.5203   14.3396 C.2     1  UNL1        0.0436
     24 C          64.2351   84.9725   15.6551 C.2     1  UNL1        0.0288
     25 C          63.9767   83.5368   16.0046 C.2     1  UNL1        0.0896
     26 N          63.2496   82.6490   15.0386 N.am    1  UNL1       -0.1770
     27 C          62.7811   83.1969   13.7231 C.2     1  UNL1        0.2627
     28 O          62.0540   82.3090   12.7572 O.2     1  UNL1       -0.2719
     29 N          64.0251   86.9559   13.9902 N.pl3   1  UNL1       -0.3329
     30 H          64.0764   87.2313   13.0464 H       1  UNL1        0.1466
     31 C          64.2054   87.9721   15.0788 C.3     1  UNL1        0.1211
     32 C          63.5897   89.3332   14.9437 C.3     1  UNL1        0.1522
     33 O          62.5417   89.7823   15.9184 O.3     1  UNL1       -0.3783
     34 H          62.3804   89.0790   16.5666 H       1  UNL1        0.2109
     35 C          64.0220   90.2451   13.8340 C.ar    1  UNL1        0.0067
     36 C          65.1909   91.1642   14.0307 C.ar    1  UNL1       -0.0018
     37 C          65.6232   92.0761   12.9210 C.ar    1  UNL1        0.0006
     38 C          64.8865   92.0689   11.6144 C.ar    1  UNL1        0.0114
     39 C          63.7175   91.1499   11.4176 C.ar    1  UNL1        0.0574
     40 CL         62.9808   91.1427   10.1110 Cl      1  UNL1       -0.0823
     41 C          63.2852   90.2379   12.5274 C.ar    1  UNL1        0.0095
@<TRIPOS>BOND
     1    20    21    1
     2    21    19    1
     3    19    11    1
     4    11    12    2
     5    11    13   am
     6    13    14    1
     7    14    15    1
     8    15    16    1
     9    16     1    1
    10     1     2    2
    11     2     3    1
    12     3     4    1
    13     3     5    2
    14     5     6    1
    15     6     7    2
    16     7    22    1
    17    22    23    1
    18    23    29    1
    19    29    31    1
    20    31    32    1
    21    32    33    1
    22    32    35    1
    23    35    36   ar
    24    36    37   ar
    25    37    38   ar
    26    38    39   ar
    27    39    40    1
    28    39    41   ar
    29    23    24    2
    30    24    25    1
    31    25    26    2
    32    26    27    1
    33    27    28    2
    34     7     8    1
    35     8     9    2
    36     9    10    1
    37    16    17    1
    38    17    18    1
    39    18    13    1
    40    10     1    1
    41     9     5    1
    42    27    22    1
    43    41    35   ar
    44    29    30    1
    45    33    34    1
@<TRIPOS>MOLECULE
*****
 41 45 0 0 0
SMALL
GASTEIGER

@<TRIPOS>ATOM
      1 C          60.7699   88.8687    8.7632 C.2     1  UNL1        0.0332
      2 C          61.2016   89.6358    9.9776 C.2     1  UNL1        0.0101
      3 C          61.8085   88.9139   11.1442 C.2     1  UNL1        0.0255
      4 C          62.2402   89.6811   12.3587 C.3     1  UNL1        0.0351
      5 C          61.9836   87.4250   11.0961 C.2     1  UNL1        0.2278
      6 N          62.5464   86.4481   12.0855 N.2     1  UNL1       -0.0345
      7 C          62.4624   85.0773   11.4824 C.2     1  UNL1        0.3649
      8 N          61.8478   85.2069   10.1203 N.2     1  UNL1       -0.0380
      9 C          61.5518   86.6579    9.8815 C.2     1  UNL1        0.2184
     10 C          60.9450   87.3798    8.7150 C.3     1  UNL1        0.1186
     11 C          58.3427   91.7561    4.0971 C.2     1  UNL1        0.2559
     12 O          56.8513   91.8333    3.9562 O.2     1  UNL1       -0.2721
     13 N          58.9494   91.0342    5.2636 N.am    1  UNL1       -0.2740
     14 C          60.4408   90.9571    5.4045 C.3     1  UNL1        0.1149
     15 C          61.0476   90.2352    6.5710 C.3     1  UNL1        0.1121
     16 N          60.1630   89.5906    7.5966 N.pl3   1  UNL1       -0.3070
     17 C          58.6717   89.6678    7.4558 C.3     1  UNL1        0.1121
     18 C          58.0649   90.3896    6.2892 C.3     1  UNL1        0.1149
     19 C          59.2273   92.4007    3.0715 C.3     1  UNL1        0.2272
     20 C          60.5848   94.4622    2.2606 C.3     1  UNL1        0.1748
     21 O          59.8354   93.7447    3.3439 O.3     1  UNL1       -0.3417
     22 C          62.9139   83.8008   12.1281 C.3     1  UNL1        0.2250
     23 C          62.6832   83.5792   13.5936 C.2     1  UNL1        0.0436
     24 C          63.1347   82.3027   14.2392 C.2     1  UNL1        0.0288
     25 C          63.8168   81.2479   13.4193 C.2     1  UNL1        0.0896
     26 N          64.0474   81.4695   11.9539 N.am    1  UNL1       -0.1770
     27 C          63.5959   82.7460   11.3083 C.2     1  UNL1        0.2627
     28 O          63.8266   82.9676    9.8428 O.2     1  UNL1       -0.2719
     29 N          62.0011   84.6339   14.4134 N.pl3   1  UNL1       -0.3329
     30 H          61.1151   84.9691   14.1456 H       1  UNL1        0.1466
     31 C          62.6691   85.1780   15.6414 C.3     1  UNL1        0.1211
     32 C          63.9209   85.9945   15.5148 C.3     1  UNL1        0.1522
     33 O          65.2334   85.3188   15.2486 O.3     1  UNL1       -0.3783
     34 H          65.0970   84.3605   15.1867 H       1  UNL1        0.2109
     35 C          63.8603   87.4868   15.6544 C.ar    1  UNL1        0.0067
     36 C          63.0824   88.1040   16.7786 C.ar    1  UNL1       -0.0018
     37 C          63.0218   89.5962   16.9182 C.ar    1  UNL1        0.0006
     38 C          63.7392   90.4714   15.9336 C.ar    1  UNL1        0.0114
     39 C          64.5171   89.8542   14.8094 C.ar    1  UNL1        0.0574
     40 CL         65.2344   90.7293   13.8247 Cl      1  UNL1       -0.0823
     41 C          64.5777   88.3619   14.6698 C.ar    1  UNL1        0.0095
@<TRIPOS>BOND
     1    20    21    1
     2    21    19    1
     3    19    11    1
     4    11    12    2
     5    11    13   am
     6    13    14    1
     7    14    15    1
     8    15    16    1
     9    16     1    1
    10     1     2    2
    11     2     3    1
    12     3     4    1
    13     3     5    2
    14     5     6    1
    15     6     7    2
    16     7    22    1
    17    22    23    1
    18    23    29    1
    19    29    31    1
    20    31    32    1
    21    32    33    1
    22    32    35    1
    23    35    36   ar
    24    36    37   ar
    25    37    38   ar
    26    38    39   ar
    27    39    40    1
    28    39    41   ar
    29    23    24    2
    30    24    25    1
    31    25    26    2
    32    26    27    1
    33    27    28    2
    34     7     8    1
    35     8     9    2
    36     9    10    1
    37    16    17    1
    38    17    18    1
    39    18    13    1
    40    10     1    1
    41     9     5    1
    42    27    22    1
    43    41    35   ar
    44    29    30    1
    45    33    34    1
@<TRIPOS>MOLECULE
*****
 41 45 0 0 0
SMALL
GASTEIGER

@<TRIPOS>ATOM
      1 C          59.7497   90.2039    6.3207 C.2     1  UNL1        0.0332
      2 C          58.2843   90.4757    6.1520 C.2     1  UNL1        0.0101
      3 C          57.8035   91.3074    4.9998 C.2     1  UNL1        0.0255
      4 C          56.3380   91.5792    4.8311 C.3     1  UNL1        0.0351
      5 C          58.7883   91.8671    4.0165 C.2     1  UNL1        0.2278
      6 N          58.6121   92.7151    2.7918 N.2     1  UNL1       -0.0345
      7 C          59.9688   92.9673    2.2037 C.2     1  UNL1        0.3649
      8 N          60.9834   92.2752    3.0649 N.2     1  UNL1       -0.0380
      9 C          60.2538   91.5952    4.1853 C.2     1  UNL1        0.2184
     10 C          60.7345   90.7636    5.3374 C.3     1  UNL1        0.1186
     11 C          61.6728   86.8773   10.9290 C.2     1  UNL1        0.2559
     12 O          62.2719   87.5401   12.1339 O.2     1  UNL1       -0.2721
     13 N          61.1921   87.7090    9.7769 N.am    1  UNL1       -0.2740
     14 C          60.5930   87.0462    8.5720 C.3     1  UNL1        0.1149
     15 C          60.1122   87.8779    7.4199 C.3     1  UNL1        0.1121
     16 N          60.2305   89.3723    7.4728 N.pl3   1  UNL1       -0.3070
     17 C          60.8296   90.0350    8.6777 C.3     1  UNL1        0.1121
     18 C          61.3104   89.2034    9.8298 C.3     1  UNL1        0.1149
     19 C          61.5545   85.3830   10.8760 C.3     1  UNL1        0.2272
     20 C          62.7164   83.4636   12.1861 C.3     1  UNL1        0.1748
     21 O          62.7596   84.5259   11.1279 O.3     1  UNL1       -0.3417
     22 C          60.2598   93.7706    0.9708 C.3     1  UNL1        0.2250
     23 C          59.6622   93.3683   -0.3449 C.2     1  UNL1        0.0436
     24 C          59.9532   94.1717   -1.5777 C.2     1  UNL1        0.0288
     25 C          60.8419   95.3773   -1.4950 C.2     1  UNL1        0.0896
     26 N          61.4395   95.7795   -0.1793 N.am    1  UNL1       -0.1770
     27 C          61.1485   94.9762    1.0536 C.2     1  UNL1        0.2627
     28 O          61.7461   95.3784    2.3692 O.2     1  UNL1       -0.2719
     29 N          58.7735   92.1628   -0.4277 N.pl3   1  UNL1       -0.3329
     30 H          59.1227   91.2760   -0.1809 H       1  UNL1        0.1466
     31 C          57.3528   92.3083   -0.8866 C.3     1  UNL1        0.1211
     32 C          57.0490   92.4686   -2.3467 C.3     1  UNL1        0.1522
     33 O          57.6482   91.5236   -3.3456 O.3     1  UNL1       -0.3783
     34 H          58.2022   90.8744   -2.8846 H       1  UNL1        0.2109
     35 C          56.1459   93.5739   -2.8079 C.ar    1  UNL1        0.0067
     36 C          56.1483   93.9928   -4.2481 C.ar    1  UNL1       -0.0018
     37 C          55.2452   95.0981   -4.7093 C.ar    1  UNL1        0.0006
     38 C          54.3397   95.7846   -3.7302 C.ar    1  UNL1        0.0114
     39 C          54.3373   95.3658   -2.2899 C.ar    1  UNL1        0.0574
     40 CL         53.4318   96.0523   -1.3107 Cl      1  UNL1       -0.0823
     41 C          55.2404   94.2604   -1.8287 C.ar    1  UNL1        0.0095
@<TRIPOS>BOND
     1    20    21    1
     2    21    19    1
     3    19    11    1
     4    11    12    2
     5    11    13   am
     6    13    14    1
     7    14    15    1
     8    15    16    1
     9    16     1    1
    10     1     2    2
    11     2     3    1
    12     3     4    1
    13     3     5    2
    14     5     6    1
    15     6     7    2
    16     7    22    1
    17    22    23    1
    18    23    29    1
    19    29    31    1
    20    31    32    1
    21    32    33    1
    22    32    35    1
    23    35    36   ar
    24    36    37   ar
    25    37    38   ar
    26    38    39   ar
    27    39    40    1
    28    39    41   ar
    29    23    24    2
    30    24    25    1
    31    25    26    2
    32    26    27    1
    33    27    28    2
    34     7     8    1
    35     8     9    2
    36     9    10    1
    37    16    17    1
    38    17    18    1
    39    18    13    1
    40    10     1    1
    41     9     5    1
    42    27    22    1
    43    41    35   ar
    44    29    30    1
    45    33    34    1
@<TRIPOS>MOLECULE
*****
 41 45 0 0 0
SMALL
GASTEIGER

@<TRIPOS>ATOM
      1 C          63.4207   86.0371   14.8018 C.2     1  UNL1        0.0332
      2 C          63.0340   86.5206   16.1679 C.2     1  UNL1        0.0101
      3 C          63.3234   87.9358   16.5725 C.2     1  UNL1        0.0255
      4 C          62.9366   88.4193   17.9388 C.3     1  UNL1        0.0351
      5 C          63.9996   88.8673   15.6108 C.2     1  UNL1        0.2278
      6 N          64.4103   90.3053   15.7271 N.2     1  UNL1       -0.0345
      7 C          65.0509   90.7104   14.4327 C.2     1  UNL1        0.3649
      8 N          65.0361   89.5229   13.5164 N.2     1  UNL1       -0.0380
      9 C          64.3864   88.3837   14.2445 C.2     1  UNL1        0.2184
     10 C          64.0969   86.9686   13.8400 C.3     1  UNL1        0.1186
     11 C          62.2631   80.3766   13.1833 C.2     1  UNL1        0.2559
     12 O          61.2389   79.5768   13.9325 O.2     1  UNL1       -0.2721
     13 N          62.5525   81.7917   13.5879 N.am    1  UNL1       -0.2740
     14 C          63.5768   82.5915   12.8388 C.3     1  UNL1        0.1149
     15 C          63.8662   84.0066   13.2434 C.3     1  UNL1        0.1121
     16 N          63.1313   84.6219   14.3972 N.pl3   1  UNL1       -0.3070
     17 C          62.1071   83.8222   15.1463 C.3     1  UNL1        0.1121
     18 C          61.8176   82.4070   14.7417 C.3     1  UNL1        0.1149
     19 C          62.9980   79.7613   12.0295 C.3     1  UNL1        0.2272
     20 C          62.7285   79.2699    9.4926 C.3     1  UNL1        0.1748
     21 O          62.7406   80.2443   10.6329 O.3     1  UNL1       -0.3417
     22 C          65.6085   92.0653   14.1109 C.3     1  UNL1        0.2250
     23 C          65.5299   92.5953   12.7099 C.2     1  UNL1        0.0436
     24 C          66.0875   93.9502   12.3883 C.2     1  UNL1        0.0288
     25 C          66.7236   94.7751   13.4676 C.2     1  UNL1        0.0896
     26 N          66.8021   94.2451   14.8686 N.am    1  UNL1       -0.1770
     27 C          66.2446   92.8902   15.1902 C.2     1  UNL1        0.2627
     28 O          66.3231   92.3602   16.5913 O.2     1  UNL1       -0.2719
     29 N          64.8938   91.7705   11.6305 N.pl3   1  UNL1       -0.3329
     30 H          65.4410   91.4235   10.8893 H       1  UNL1        0.1466
     31 C          63.4242   91.4744   11.6805 C.3     1  UNL1        0.1211
     32 C          62.7210   90.9594   10.4598 C.3     1  UNL1        0.1522
     33 O          62.9772   91.5916    9.1238 O.3     1  UNL1       -0.3783
     34 H          63.6177   92.3131    9.2251 H       1  UNL1        0.2109
     35 C          61.7616   89.8121   10.5749 C.ar    1  UNL1        0.0067
     36 C          61.9569   88.5840    9.7361 C.ar    1  UNL1       -0.0018
     37 C          60.9975   87.4367    9.8513 C.ar    1  UNL1        0.0006
     38 C          59.8428   87.5175   10.8053 C.ar    1  UNL1        0.0114
     39 C          59.6475   88.7456   11.6441 C.ar    1  UNL1        0.0574
     40 CL         58.4928   88.8264   12.5981 Cl      1  UNL1       -0.0823
     41 C          60.6069   89.8929   11.5289 C.ar    1  UNL1        0.0095
@<TRIPOS>BOND
     1    20    21    1
     2    21    19    1
     3    19    11    1
     4    11    12    2
     5    11    13   am
     6    13    14    1
     7    14    15    1
     8    15    16    1
     9    16     1    1
    10     1     2    2
    11     2     3    1
    12     3     4    1
    13     3     5    2
    14     5     6    1
    15     6     7    2
    16     7    22    1
    17    22    23    1
    18    23    29    1
    19    29    31    1
    20    31    32    1
    21    32    33    1
    22    32    35    1
    23    35    36   ar
    24    36    37   ar
    25    37    38   ar
    26    38    39   ar
    27    39    40    1
    28    39    41   ar
    29    23    24    2
    30    24    25    1
    31    25    26    2
    32    26    27    1
    33    27    28    2
    34     7     8    1
    35     8     9    2
    36     9    10    1
    37    16    17    1
    38    17    18    1
    39    18    13    1
    40    10     1    1
    41     9     5    1
    42    27    22    1
    43    41    35   ar
    44    29    30    1
    45    33    34    1
