@<TRIPOS>MOLECULE
*****
 21 21 0 0 0
SMALL
GASTEIGER

@<TRIPOS>ATOM
      1 C          63.0974   91.2245   10.1991 C.3     1  UNL1        0.0342
      2 C          64.1787   91.7243   11.1106 C.ar    1  UNL1       -0.0185
      3 C          64.2395   91.2505   12.5325 C.ar    1  UNL1       -0.0009
      4 C          65.3208   91.7504   13.4440 C.ar    1  UNL1        0.0395
      5 C          66.3413   92.7241   12.9337 C.ar    1  UNL1        0.1677
      6 O          67.4226   93.2239   13.8452 O.3     1  UNL1       -0.5029
      7 C          66.2805   93.1979   11.5118 C.ar    1  UNL1        0.1718
      8 C          65.1992   92.6980   10.6003 C.ar    1  UNL1        0.0358
      9 H          67.4606   92.9280   14.7334 H       1  UNL1        0.2923
     10 O          67.3010   94.1716   11.0014 O.3     1  UNL1       -0.4684
     11 C          67.2050   94.6919    9.5978 C.3     1  UNL1        0.2526
     12 C          62.5981   89.8161   10.3295 C.3     1  UNL1        0.0692
     13 C          61.2581   89.5497   10.9489 C.2     1  UNL1        0.1510
     14 O          61.1157   89.5140   12.4417 O.2     1  UNL1       -0.2960
     15 C          60.0606   89.3191   10.0755 C.3     1  UNL1        0.0645
     16 C          60.2269   89.2083    8.5888 C.3     1  UNL1        0.0077
     17 C          59.4313   88.1965    7.8185 C.3     1  UNL1        0.0004
     18 C          59.5257   86.7417    8.1715 C.3     1  UNL1        0.0000
     19 C          60.7830   85.9785    7.8767 C.3     1  UNL1        0.0000
     20 C          61.6896   85.9069   10.3104 C.3     1  UNL1        0.0000
     21 C          61.9350   86.0317    8.8359 C.3     1  UNL1        0.0000
@<TRIPOS>BOND
     1    20    21    1
     2    21    19    1
     3    19    18    1
     4    18    17    1
     5    17    16    1
     6    16    15    1
     7    15    13    1
     8    13    14    2
     9    13    12    1
    10    12     1    1
    11     1     2    1
    12     2     3   ar
    13     3     4   ar
    14     4     5   ar
    15     5     6    1
    16     5     7   ar
    17     7    10    1
    18    10    11    1
    19     7     8   ar
    20     8     2   ar
    21     6     9    1
@<TRIPOS>MOLECULE
*****
 21 21 0 0 0
SMALL
GASTEIGER

@<TRIPOS>ATOM
      1 C          62.2768   86.0681    8.7358 C.3     1  UNL1        0.0342
      2 C          62.8059   85.1620    9.8078 C.ar    1  UNL1       -0.0185
      3 C          63.6243   83.9607    9.4379 C.ar    1  UNL1       -0.0009
      4 C          64.1533   83.0546   10.5098 C.ar    1  UNL1        0.0395
      5 C          63.8640   83.3499   11.9517 C.ar    1  UNL1        0.1677
      6 O          64.3931   82.4438   13.0237 O.3     1  UNL1       -0.5029
      7 C          63.0456   84.5513   12.3216 C.ar    1  UNL1        0.1718
      8 C          62.5166   85.4573   11.2497 C.ar    1  UNL1        0.0358
      9 H          64.9043   81.6933   12.7926 H       1  UNL1        0.2923
     10 O          62.7563   84.8466   13.7636 O.3     1  UNL1       -0.4684
     11 C          63.8192   85.4490   14.6337 C.3     1  UNL1        0.2526
     12 C          60.8661   85.9119    8.2505 C.3     1  UNL1        0.0692
     13 C          59.8341   86.9427    8.6004 C.2     1  UNL1        0.1510
     14 O          58.5359   86.9888    7.8504 O.2     1  UNL1       -0.2960
     15 C          60.1003   87.9273    9.7002 C.3     1  UNL1        0.0645
     16 C          60.9151   89.1565    9.4255 C.3     1  UNL1        0.0077
     17 C          62.2545   89.3298   10.0780 C.3     1  UNL1        0.0004
     18 C          62.5514   90.5734   10.8624 C.3     1  UNL1        0.0000
     19 C          63.3927   90.4953   12.1019 C.3     1  UNL1        0.0000
     20 C          64.1909   89.1530   14.1782 C.3     1  UNL1        0.0000
     21 C          63.5404   89.1906   12.8271 C.3     1  UNL1        0.0000
@<TRIPOS>BOND
     1    20    21    1
     2    21    19    1
     3    19    18    1
     4    18    17    1
     5    17    16    1
     6    16    15    1
     7    15    13    1
     8    13    14    2
     9    13    12    1
    10    12     1    1
    11     1     2    1
    12     2     3   ar
    13     3     4   ar
    14     4     5   ar
    15     5     6    1
    16     5     7   ar
    17     7    10    1
    18    10    11    1
    19     7     8   ar
    20     8     2   ar
    21     6     9    1
@<TRIPOS>MOLECULE
*****
 21 21 0 0 0
SMALL
GASTEIGER

@<TRIPOS>ATOM
      1 C          62.5466   85.1176    9.9815 C.3     1  UNL1        0.0342
      2 C          61.9135   86.4771   10.0130 C.ar    1  UNL1       -0.0185
      3 C          61.0183   86.9137    8.8914 C.ar    1  UNL1       -0.0009
      4 C          60.3853   88.2732    8.9229 C.ar    1  UNL1        0.0395
      5 C          60.6474   89.1961   10.0759 C.ar    1  UNL1        0.1677
      6 O          60.0143   90.5556   10.1073 O.3     1  UNL1       -0.5029
      7 C          61.5426   88.7595   11.1974 C.ar    1  UNL1        0.1718
      8 C          62.1757   87.4000   11.1660 C.ar    1  UNL1        0.0358
      9 H          59.4551   90.8283    9.4067 H       1  UNL1        0.2923
     10 O          61.8048   89.6824   12.3505 O.3     1  UNL1       -0.4684
     11 C          63.1947   90.1839   12.6088 C.3     1  UNL1        0.2526
     12 C          62.8122   84.3841   11.2627 C.3     1  UNL1        0.0692
     13 C          63.4909   83.0468   11.2345 C.2     1  UNL1        0.1510
     14 O          64.8722   82.9186   10.6639 O.2     1  UNL1       -0.2960
     15 C          62.7883   81.8375   11.7768 C.3     1  UNL1        0.0645
     16 C          62.9418   81.4661   13.2220 C.3     1  UNL1        0.0077
     17 C          62.1015   82.1433   14.2637 C.3     1  UNL1        0.0004
     18 C          62.6557   83.3031   15.0368 C.3     1  UNL1        0.0000
     19 C          64.1387   83.5173   15.1075 C.3     1  UNL1        0.0000
     20 C          64.4646   86.0803   14.8341 C.3     1  UNL1        0.0000
     21 C          64.7636   84.6784   14.3924 C.3     1  UNL1        0.0000
@<TRIPOS>BOND
     1    20    21    1
     2    21    19    1
     3    19    18    1
     4    18    17    1
     5    17    16    1
     6    16    15    1
     7    15    13    1
     8    13    14    2
     9    13    12    1
    10    12     1    1
    11     1     2    1
    12     2     3   ar
    13     3     4   ar
    14     4     5   ar
    15     5     6    1
    16     5     7   ar
    17     7    10    1
    18    10    11    1
    19     7     8   ar
    20     8     2   ar
    21     6     9    1
@<TRIPOS>MOLECULE
*****
 21 21 0 0 0
SMALL
GASTEIGER

@<TRIPOS>ATOM
      1 C          62.9364   90.6815   10.3413 C.3     1  UNL1        0.0342
      2 C          63.9377   91.3034   11.2690 C.ar    1  UNL1       -0.0185
      3 C          63.9979   90.8737   12.7048 C.ar    1  UNL1       -0.0009
      4 C          64.9992   91.4956   13.6325 C.ar    1  UNL1        0.0395
      5 C          65.9403   92.5472   13.1244 C.ar    1  UNL1        0.1677
      6 O          66.9416   93.1691   14.0521 O.3     1  UNL1       -0.5029
      7 C          65.8802   92.9769   11.6885 C.ar    1  UNL1        0.1718
      8 C          64.8789   92.3550   10.7608 C.ar    1  UNL1        0.0358
      9 H          66.9792   92.9007   14.9490 H       1  UNL1        0.2923
     10 O          66.8214   94.0286   11.1803 O.3     1  UNL1       -0.4684
     11 C          67.2381   94.0291    9.7394 C.3     1  UNL1        0.2526
     12 C          61.5622   90.3436   10.8384 C.3     1  UNL1        0.0692
     13 C          61.2212   88.9275   11.1964 C.2     1  UNL1        0.1510
     14 O          59.9416   88.6234   11.9176 O.2     1  UNL1       -0.2960
     15 C          62.1599   87.8152   10.8331 C.3     1  UNL1        0.0645
     16 C          61.6185   86.5165   10.3133 C.3     1  UNL1        0.0077
     17 C          61.7089   86.1981    8.8503 C.3     1  UNL1        0.0004
     18 C          60.4780   86.2477    7.9945 C.3     1  UNL1        0.0000
     19 C          59.4295   87.2899    8.2484 C.3     1  UNL1        0.0000
     20 C          59.3010   89.3278    6.6420 C.3     1  UNL1        0.0000
     21 C          59.7185   88.7320    7.9537 C.3     1  UNL1        0.0000
@<TRIPOS>BOND
     1    20    21    1
     2    21    19    1
     3    19    18    1
     4    18    17    1
     5    17    16    1
     6    16    15    1
     7    15    13    1
     8    13    14    2
     9    13    12    1
    10    12     1    1
    11     1     2    1
    12     2     3   ar
    13     3     4   ar
    14     4     5   ar
    15     5     6    1
    16     5     7   ar
    17     7    10    1
    18    10    11    1
    19     7     8   ar
    20     8     2   ar
    21     6     9    1
@<TRIPOS>MOLECULE
*****
 21 21 0 0 0
SMALL
GASTEIGER

@<TRIPOS>ATOM
      1 C          64.1122   89.5717   14.8365 C.3     1  UNL1        0.0342
      2 C          64.8237   90.6475   14.0707 C.ar    1  UNL1       -0.0185
      3 C          64.2391   91.1696   12.7919 C.ar    1  UNL1       -0.0009
      4 C          64.9507   92.2454   12.0261 C.ar    1  UNL1        0.0395
      5 C          66.2468   92.7991   12.5393 C.ar    1  UNL1        0.1677
      6 O          66.9584   93.8749   11.7736 O.3     1  UNL1       -0.5029
      7 C          66.8314   92.2770   13.8182 C.ar    1  UNL1        0.1718
      8 C          66.1199   91.2012   14.5839 C.ar    1  UNL1        0.0358
      9 H          66.5932   94.2011   10.9747 H       1  UNL1        0.2923
     10 O          68.1276   92.8307   14.3314 O.3     1  UNL1       -0.4684
     11 C          68.1656   93.5584   15.6425 C.3     1  UNL1        0.2526
     12 C          64.4234   88.1291   14.5681 C.3     1  UNL1        0.0692
     13 C          63.9245   87.0677   15.5033 C.2     1  UNL1        0.1510
     14 O          63.1122   87.4486   16.7053 O.2     1  UNL1       -0.2960
     15 C          64.2380   85.6252   15.2363 C.3     1  UNL1        0.0645
     16 C          64.0217   85.0517   13.8672 C.3     1  UNL1        0.0077
     17 C          64.4762   83.6560   13.5584 C.3     1  UNL1        0.0004
     18 C          64.0658   83.0007   12.2730 C.3     1  UNL1        0.0000
     19 C          62.7047   82.3830   12.1472 C.3     1  UNL1        0.0000
     20 C          61.4959   81.2054   14.1226 C.3     1  UNL1        0.0000
     21 C          62.3748   81.1337   12.9092 C.3     1  UNL1        0.0000
@<TRIPOS>BOND
     1    20    21    1
     2    21    19    1
     3    19    18    1
     4    18    17    1
     5    17    16    1
     6    16    15    1
     7    15    13    1
     8    13    14    2
     9    13    12    1
    10    12     1    1
    11     1     2    1
    12     2     3   ar
    13     3     4   ar
    14     4     5   ar
    15     5     6    1
    16     5     7   ar
    17     7    10    1
    18    10    11    1
    19     7     8   ar
    20     8     2   ar
    21     6     9    1
@<TRIPOS>MOLECULE
*****
 21 21 0 0 0
SMALL
GASTEIGER

@<TRIPOS>ATOM
      1 C          63.8383   83.6465   11.5267 C.3     1  UNL1        0.0342
      2 C          63.0218   84.6524   10.7706 C.ar    1  UNL1       -0.0185
      3 C          63.1234   84.7299    9.2761 C.ar    1  UNL1       -0.0009
      4 C          62.3070   85.7357    8.5200 C.ar    1  UNL1        0.0395
      5 C          61.3889   86.6640    9.2584 C.ar    1  UNL1        0.1677
      6 O          60.5725   87.6699    8.5023 O.3     1  UNL1       -0.5029
      7 C          61.2873   86.5865   10.7529 C.ar    1  UNL1        0.1718
      8 C          62.1038   85.5807   11.5090 C.ar    1  UNL1        0.0358
      9 H          60.6359   87.7183    7.5687 H       1  UNL1        0.2923
     10 O          60.3692   87.5149   11.4914 O.3     1  UNL1       -0.4684
     11 C          60.6662   88.9845   11.5366 C.3     1  UNL1        0.2526
     12 C          63.7236   82.1876   11.1976 C.3     1  UNL1        0.0692
     13 C          63.2113   81.2245   12.2273 C.2     1  UNL1        0.1510
     14 O          62.5781   79.9343   11.7980 O.2     1  UNL1       -0.2960
     15 C          63.3323   81.5518   13.6862 C.3     1  UNL1        0.0645
     16 C          62.1873   82.1994   14.4070 C.3     1  UNL1        0.0077
     17 C          62.3087   83.6146   14.8890 C.3     1  UNL1        0.0004
     18 C          63.6426   84.1484   15.3199 C.3     1  UNL1        0.0000
     19 C          63.8037   85.6086   15.6231 C.3     1  UNL1        0.0000
     20 C          64.3404   87.9444   14.6201 C.3     1  UNL1        0.0000
     21 C          64.6288   86.4757   14.7190 C.3     1  UNL1        0.0000
@<TRIPOS>BOND
     1    20    21    1
     2    21    19    1
     3    19    18    1
     4    18    17    1
     5    17    16    1
     6    16    15    1
     7    15    13    1
     8    13    14    2
     9    13    12    1
    10    12     1    1
    11     1     2    1
    12     2     3   ar
    13     3     4   ar
    14     4     5   ar
    15     5     6    1
    16     5     7   ar
    17     7    10    1
    18    10    11    1
    19     7     8   ar
    20     8     2   ar
    21     6     9    1
@<TRIPOS>MOLECULE
*****
 21 21 0 0 0
SMALL
GASTEIGER

@<TRIPOS>ATOM
      1 C          61.5769   86.7697    9.5091 C.3     1  UNL1        0.0342
      2 C          62.4074   85.6667   10.0953 C.ar    1  UNL1       -0.0185
      3 C          63.1642   84.7372    9.1935 C.ar    1  UNL1       -0.0009
      4 C          63.9947   83.6343    9.7797 C.ar    1  UNL1        0.0395
      5 C          64.0685   83.4607   11.2678 C.ar    1  UNL1        0.1677
      6 O          64.8990   82.3578   11.8540 O.3     1  UNL1       -0.5029
      7 C          63.3117   84.3902   12.1696 C.ar    1  UNL1        0.1718
      8 C          62.4812   85.4932   11.5834 C.ar    1  UNL1        0.0358
      9 H          65.3718   81.7771   11.2906 H       1  UNL1        0.2923
     10 O          63.3855   84.2167   13.6578 O.3     1  UNL1       -0.4684
     11 C          64.1006   85.2338   14.4969 C.3     1  UNL1        0.2526
     12 C          60.5279   87.4431   10.3434 C.3     1  UNL1        0.0692
     13 C          60.8687   88.6783   11.1233 C.2     1  UNL1        0.1510
     14 O          59.9367   89.1731   12.1893 O.2     1  UNL1       -0.2960
     15 C          62.1416   89.4186   10.8372 C.3     1  UNL1        0.0645
     16 C          63.0492   89.8133   11.9643 C.3     1  UNL1        0.0077
     17 C          63.5600   88.7722   12.9157 C.3     1  UNL1        0.0004
     18 C          64.2092   89.1864   14.2029 C.3     1  UNL1        0.0000
     19 C          64.4826   90.6365   14.4724 C.3     1  UNL1        0.0000
     20 C          66.8416   91.6044   14.9706 C.3     1  UNL1        0.0000
     21 C          65.7586   91.2612   13.9912 C.3     1  UNL1        0.0000
@<TRIPOS>BOND
     1    20    21    1
     2    21    19    1
     3    19    18    1
     4    18    17    1
     5    17    16    1
     6    16    15    1
     7    15    13    1
     8    13    14    2
     9    13    12    1
    10    12     1    1
    11     1     2    1
    12     2     3   ar
    13     3     4   ar
    14     4     5   ar
    15     5     6    1
    16     5     7   ar
    17     7    10    1
    18    10    11    1
    19     7     8   ar
    20     8     2   ar
    21     6     9    1
@<TRIPOS>MOLECULE
*****
 21 21 0 0 0
SMALL
GASTEIGER

@<TRIPOS>ATOM
      1 C          62.6975   85.2467    9.9179 C.3     1  UNL1        0.0342
      2 C          62.0120   86.5806    9.8909 C.ar    1  UNL1       -0.0185
      3 C          62.4043   87.6454   10.8718 C.ar    1  UNL1       -0.0009
      4 C          61.7189   88.9794   10.8447 C.ar    1  UNL1        0.0395
      5 C          60.6412   89.2485    9.8368 C.ar    1  UNL1        0.1677
      6 O          59.9557   90.5825    9.8097 O.3     1  UNL1       -0.5029
      7 C          60.2489   88.1837    8.8559 C.ar    1  UNL1        0.1718
      8 C          60.9343   86.8498    8.8829 C.ar    1  UNL1        0.0358
      9 H          60.2008   91.2477   10.4225 H       1  UNL1        0.2923
     10 O          59.1711   88.4528    7.8479 O.3     1  UNL1       -0.4684
     11 C          59.4299   89.3893    6.7051 C.3     1  UNL1        0.2526
     12 C          62.7226   84.4419   11.1835 C.3     1  UNL1        0.0692
     13 C          63.4265   83.1177   11.2164 C.2     1  UNL1        0.1510
     14 O          64.7658   82.9637   10.5588 O.2     1  UNL1       -0.2960
     15 C          62.7910   81.9474   11.9069 C.3     1  UNL1        0.0645
     16 C          63.0700   81.6910   13.3583 C.3     1  UNL1        0.0077
     17 C          62.2734   82.4015   14.4121 C.3     1  UNL1        0.0004
     18 C          62.7134   83.7485   14.9040 C.3     1  UNL1        0.0000
     19 C          64.1386   84.1823   14.7286 C.3     1  UNL1        0.0000
     20 C          64.2747   86.7655   14.4870 C.3     1  UNL1        0.0000
     21 C          64.5871   85.5142   15.2528 C.3     1  UNL1        0.0000
@<TRIPOS>BOND
     1    20    21    1
     2    21    19    1
     3    19    18    1
     4    18    17    1
     5    17    16    1
     6    16    15    1
     7    15    13    1
     8    13    14    2
     9    13    12    1
    10    12     1    1
    11     1     2    1
    12     2     3   ar
    13     3     4   ar
    14     4     5   ar
    15     5     6    1
    16     5     7   ar
    17     7    10    1
    18    10    11    1
    19     7     8   ar
    20     8     2   ar
    21     6     9    1
@<TRIPOS>MOLECULE
*****
 21 21 0 0 0
SMALL
GASTEIGER

@<TRIPOS>ATOM
      1 C          62.7363   91.0200   10.8577 C.3     1  UNL1        0.0342
      2 C          63.9926   91.4643   11.5464 C.ar    1  UNL1       -0.0185
      3 C          64.2218   91.1150   12.9870 C.ar    1  UNL1       -0.0009
      4 C          65.4781   91.5592   13.6758 C.ar    1  UNL1        0.0395
      5 C          66.5052   92.3528   12.9239 C.ar    1  UNL1        0.1677
      6 O          67.7615   92.7970   13.6126 O.3     1  UNL1       -0.5029
      7 C          66.2760   92.7021   11.4833 C.ar    1  UNL1        0.1718
      8 C          65.0197   92.2578   10.7945 C.ar    1  UNL1        0.0358
      9 H          67.9047   92.5788   14.5125 H       1  UNL1        0.2923
     10 O          67.3031   93.4956   10.7313 O.3     1  UNL1       -0.4684
     11 C          67.9762   92.9029    9.5290 C.3     1  UNL1        0.2526
     12 C          62.6425   89.6354   10.2885 C.3     1  UNL1        0.0692
     13 C          61.3001   88.9984   10.0829 C.2     1  UNL1        0.1510
     14 O          60.0963   89.5390   10.7960 O.2     1  UNL1       -0.2960
     15 C          61.1616   87.8207    9.1642 C.3     1  UNL1        0.0645
     16 C          61.5441   86.4502    9.6389 C.3     1  UNL1        0.0077
     17 C          61.3800   86.0841   11.0842 C.3     1  UNL1        0.0004
     18 C          62.5540   85.5753   11.8670 C.3     1  UNL1        0.0000
     19 C          62.9517   84.1322   11.7697 C.3     1  UNL1        0.0000
     20 C          63.9470   82.1670   10.3924 C.3     1  UNL1        0.0000
     21 C          63.6679   83.6323   10.5503 C.3     1  UNL1        0.0000
@<TRIPOS>BOND
     1    20    21    1
     2    21    19    1
     3    19    18    1
     4    18    17    1
     5    17    16    1
     6    16    15    1
     7    15    13    1
     8    13    14    2
     9    13    12    1
    10    12     1    1
    11     1     2    1
    12     2     3   ar
    13     3     4   ar
    14     4     5   ar
    15     5     6    1
    16     5     7   ar
    17     7    10    1
    18    10    11    1
    19     7     8   ar
    20     8     2   ar
    21     6     9    1
