@<TRIPOS>MOLECULE
*****
 52 55 0 0 0
SMALL
GASTEIGER

@<TRIPOS>ATOM
      1 C          63.4725   84.7360   13.4853 C.3     1  UNL1        0.0760
      2 C          64.3716   86.8280   14.7364 C.2     1  UNL1        0.2429
      3 O          65.6991   86.1521   14.9126 O.2     1  UNL1       -0.2732
      4 N          63.2583   86.1199   14.0227 N.am    1  UNL1       -0.3042
      5 H          62.3871   86.5635   13.9071 H       1  UNL1        0.1494
      6 C          64.1574   88.2119   15.2739 C.3     1  UNL1        0.1796
      7 N          65.0623   89.3301   14.8483 N.am    1  UNL1       -0.2805
      8 C          64.9585   90.6721   15.5103 C.2     1  UNL1        0.3047
      9 O          63.9498   90.8960   16.5978 O.2     1  UNL1       -0.2526
     10 N          65.8632   91.7903   15.0849 N.am    1  UNL1       -0.2567
     11 C          65.7594   93.1323   15.7468 C.3     1  UNL1        0.1168
     12 H          65.7243   89.1832   14.1346 H       1  UNL1        0.1514
     13 C          66.8719   91.5664   13.9975 C.3     1  UNL1        0.1413
     14 C          66.8004   92.3679   12.7315 C.ar    1  UNL1        0.0858
     15 C          65.8258   93.4702   12.4397 C.ar    1  UNL1        0.0530
     16 S          66.1140   93.9913   11.0630 S.2     1  UNL1       -0.0705
     17 C          67.2667   93.2111   10.5039 C.ar    1  UNL1        0.0875
     18 N          67.6909   92.2078   11.5351 N.ar    1  UNL1       -0.2453
     19 C          67.8865   93.4010    9.1512 C.3     1  UNL1        0.0465
     20 C          68.7830   92.3418    8.5817 C.3     1  UNL1        0.0069
     21 C          67.6096   94.6500    8.3680 C.3     1  UNL1        0.0069
     22 C          63.0385   88.4777   16.2368 C.3     1  UNL1        0.1711
     23 C          62.7471   86.6686   18.0786 C.3     1  UNL1        0.1742
     24 O          62.2658   87.3335   16.8230 O.3     1  UNL1       -0.3488
     25 C          63.6341   83.5815   14.4293 C.3     1  UNL1        0.0459
     26 C          62.9525   82.2766   14.1418 C.ar    1  UNL1       -0.0205
     27 C          61.4893   82.1152   14.4297 C.ar    1  UNL1       -0.0042
     28 C          60.8077   80.8103   14.1422 C.ar    1  UNL1       -0.0003
     29 C          61.5894   79.6667   13.5668 C.ar    1  UNL1       -0.0000
     30 C          63.0527   79.8280   13.2788 C.ar    1  UNL1       -0.0003
     31 C          63.7342   81.1329   13.5663 C.ar    1  UNL1       -0.0042
     32 C          63.5251   84.5065   12.0039 C.3     1  UNL1        0.0216
     33 C          62.3168   84.7821   11.1589 C.3     1  UNL1        0.0217
     34 C          62.0672   86.1656   10.6357 C.3     1  UNL1        0.0792
     35 N          61.3321   87.1650   11.4789 N.am    1  UNL1       -0.2720
     36 C          60.0686   87.7920   10.9685 C.2     1  UNL1        0.4019
     37 O          59.5402   87.4196    9.6149 O.2     1  UNL1       -0.2264
     38 H          61.6789   87.4094   12.3673 H       1  UNL1        0.1527
     39 O          59.3335   88.7913   11.8116 O.3     1  UNL1       -0.4291
     40 C          59.8718   90.1829   11.9659 C.3     1  UNL1        0.2447
     41 C          61.3343   90.4480   11.7637 C.ar    1  UNL1        0.0714
     42 C          62.4090   90.2974   12.7992 C.ar    1  UNL1        0.1053
     43 N          63.7178   90.6666   12.1660 N.ar    1  UNL1       -0.2350
     44 C          63.4519   91.0453   10.7392 C.ar    1  UNL1        0.1343
     45 S          61.9788   90.9102   10.4906 S.2     1  UNL1       -0.0652
     46 C          62.5526   86.5497    9.2694 C.3     1  UNL1        0.0460
     47 C          62.1537   85.7344    8.0751 C.ar    1  UNL1       -0.0205
     48 C          60.7143   85.6693    7.6583 C.ar    1  UNL1       -0.0042
     49 C          60.3155   84.8540    6.4640 C.ar    1  UNL1       -0.0003
     50 C          61.3561   84.1038    5.6867 C.ar    1  UNL1       -0.0000
     51 C          62.7955   84.1689    6.1035 C.ar    1  UNL1       -0.0003
     52 C          63.1943   84.9842    7.2977 C.ar    1  UNL1       -0.0042
@<TRIPOS>BOND
     1    23    24    1
     2    24    22    1
     3     6    22    1
     4     6     7    1
     5     7     8   am
     6     8     9    2
     7     8    10   am
     8    10    11    1
     9    10    13    1
    10    13    14    1
    11    14    15   ar
    12    15    16   ar
    13    16    17   ar
    14    17    19    1
    15    19    20    1
    16    19    21    1
    17    17    18   ar
    18     6     2    1
    19     2     3    2
    20     2     4   am
    21     4     1    1
    22     1    32    1
    23    32    33    1
    24    34    33    1
    25    34    46    1
    26    46    47    1
    27    47    48   ar
    28    48    49   ar
    29    49    50   ar
    30    50    51   ar
    31    51    52   ar
    32    34    35    1
    33    35    36   am
    34    36    37    2
    35    36    39    1
    36    39    40    1
    37    40    41    1
    38    41    42   ar
    39    42    43   ar
    40    43    44   ar
    41    44    45   ar
    42     1    25    1
    43    25    26    1
    44    26    27   ar
    45    27    28   ar
    46    28    29   ar
    47    29    30   ar
    48    30    31   ar
    49    18    14   ar
    50    52    47   ar
    51    45    41   ar
    52    31    26   ar
    53     7    12    1
    54     4     5    1
    55    35    38    1
@<TRIPOS>MOLECULE
*****
 52 55 0 0 0
SMALL
GASTEIGER

@<TRIPOS>ATOM
      1 C          63.4442   85.2317   12.7556 C.3     1  UNL1        0.0760
      2 C          64.2755   86.9121   14.5544 C.2     1  UNL1        0.2429
      3 O          65.3871   85.9729   14.9180 O.2     1  UNL1       -0.2732
      4 N          63.3040   86.5415   13.4731 N.am    1  UNL1       -0.3042
      5 H          62.5744   87.1579   13.2345 H       1  UNL1        0.1494
      6 C          64.1353   88.2218   15.2719 C.3     1  UNL1        0.1796
      7 N          65.0406   89.3669   14.9265 N.am    1  UNL1       -0.2805
      8 C          64.8710   90.6903   15.6120 C.2     1  UNL1        0.3047
      9 O          63.7960   90.8685   16.6430 O.2     1  UNL1       -0.2526
     10 N          65.7762   91.8353   15.2667 N.am    1  UNL1       -0.2567
     11 C          65.6066   93.1587   15.9522 C.3     1  UNL1        0.1168
     12 H          65.7461   89.2499   14.2499 H       1  UNL1        0.1514
     13 C          66.8511   91.6570   14.2358 C.3     1  UNL1        0.1413
     14 C          66.8574   92.5120   13.0032 C.ar    1  UNL1        0.0858
     15 C          66.1543   93.8267   12.8385 C.ar    1  UNL1        0.0530
     16 S          66.4303   94.3296   11.4526 S.2     1  UNL1       -0.0705
     17 C          67.3041   93.3256   10.7606 C.ar    1  UNL1        0.0875
     18 N          67.5680   92.2024   11.7190 N.ar    1  UNL1       -0.2453
     19 C          67.8229   93.4272    9.3569 C.3     1  UNL1        0.0465
     20 C          68.6803   92.3331    8.7932 C.3     1  UNL1        0.0069
     21 C          67.4841   94.6228    8.5168 C.3     1  UNL1        0.0069
     22 C          63.0898   88.3865   16.3348 C.3     1  UNL1        0.1711
     23 C          62.7250   86.4515   18.0297 C.3     1  UNL1        0.1742
     24 O          62.3003   87.1992   16.8007 O.3     1  UNL1       -0.3488
     25 C          63.9800   84.0328   13.4808 C.3     1  UNL1        0.0459
     26 C          63.2283   82.7354   13.4424 C.ar    1  UNL1       -0.0205
     27 C          62.1082   82.4886   14.4091 C.ar    1  UNL1       -0.0042
     28 C          61.3565   81.1911   14.3707 C.ar    1  UNL1       -0.0003
     29 C          61.7249   80.1404   13.3657 C.ar    1  UNL1       -0.0000
     30 C          62.8450   80.3871   12.3989 C.ar    1  UNL1       -0.0003
     31 C          63.5967   81.6846   12.4373 C.ar    1  UNL1       -0.0042
     32 C          63.0488   85.1208   11.3130 C.3     1  UNL1        0.0216
     33 C          61.6628   85.5013   10.8839 C.3     1  UNL1        0.0217
     34 C          61.3786   86.8990   10.4193 C.3     1  UNL1        0.0792
     35 N          61.1593   87.1747    8.9612 N.am    1  UNL1       -0.2720
     36 C          59.9845   87.9976    8.5220 C.2     1  UNL1        0.4019
     37 O          59.0292   88.5447    9.5407 O.2     1  UNL1       -0.2264
     38 H          61.7863   86.8155    8.2926 H       1  UNL1        0.1527
     39 O          59.7652   88.2732    7.0639 O.3     1  UNL1       -0.4291
     40 C          58.6070   89.1201    6.6267 C.3     1  UNL1        0.2447
     41 C          58.8398   90.3132    5.7479 C.ar    1  UNL1        0.0714
     42 C          57.7839   91.2371    5.2175 C.ar    1  UNL1        0.1053
     43 N          58.4609   92.2868    4.3870 N.ar    1  UNL1       -0.2350
     44 C          59.9353   92.0116    4.4040 C.ar    1  UNL1        0.1343
     45 S          60.1695   90.7919    5.2450 S.2     1  UNL1       -0.0652
     46 C          61.3138   88.0210   11.4127 C.3     1  UNL1        0.0460
     47 C          62.1585   89.2452   11.2177 C.ar    1  UNL1       -0.0205
     48 C          63.0288   89.7415   12.3340 C.ar    1  UNL1       -0.0042
     49 C          63.8734   90.9656   12.1390 C.ar    1  UNL1       -0.0003
     50 C          63.8478   91.6934   10.8276 C.ar    1  UNL1       -0.0000
     51 C          62.9775   91.1971    9.7113 C.ar    1  UNL1       -0.0003
     52 C          62.1328   89.9730    9.9064 C.ar    1  UNL1       -0.0042
@<TRIPOS>BOND
     1    23    24    1
     2    24    22    1
     3     6    22    1
     4     6     7    1
     5     7     8   am
     6     8     9    2
     7     8    10   am
     8    10    11    1
     9    10    13    1
    10    13    14    1
    11    14    15   ar
    12    15    16   ar
    13    16    17   ar
    14    17    19    1
    15    19    20    1
    16    19    21    1
    17    17    18   ar
    18     6     2    1
    19     2     3    2
    20     2     4   am
    21     4     1    1
    22     1    32    1
    23    32    33    1
    24    34    33    1
    25    34    46    1
    26    46    47    1
    27    47    48   ar
    28    48    49   ar
    29    49    50   ar
    30    50    51   ar
    31    51    52   ar
    32    34    35    1
    33    35    36   am
    34    36    37    2
    35    36    39    1
    36    39    40    1
    37    40    41    1
    38    41    42   ar
    39    42    43   ar
    40    43    44   ar
    41    44    45   ar
    42     1    25    1
    43    25    26    1
    44    26    27   ar
    45    27    28   ar
    46    28    29   ar
    47    29    30   ar
    48    30    31   ar
    49    18    14   ar
    50    52    47   ar
    51    45    41   ar
    52    31    26   ar
    53     7    12    1
    54     4     5    1
    55    35    38    1
@<TRIPOS>MOLECULE
*****
 52 55 0 0 0
SMALL
GASTEIGER

@<TRIPOS>ATOM
      1 C          62.2246   88.8808   11.0680 C.3     1  UNL1        0.0760
      2 C          60.2731   88.3855    9.4258 C.2     1  UNL1        0.2429
      3 O          59.3357   88.2307   10.5865 O.2     1  UNL1       -0.2732
      4 N          61.7176   88.7105    9.6665 N.am    1  UNL1       -0.3042
      5 H          62.3329   88.8121    8.9047 H       1  UNL1        0.1494
      6 C          59.7661   88.2152    8.0244 C.3     1  UNL1        0.1796
      7 N          60.0549   89.2625    6.9900 N.am    1  UNL1       -0.2805
      8 C          58.9246   89.9508    6.2838 C.2     1  UNL1        0.3047
      9 O          57.5056   89.5919    6.6120 O.2     1  UNL1       -0.2526
     10 N          59.2133   90.9980    5.2494 N.am    1  UNL1       -0.2567
     11 C          58.0830   91.6863    4.5432 C.3     1  UNL1        0.1168
     12 H          60.9862   89.4980    6.7746 H       1  UNL1        0.1514
     13 C          60.6322   91.3568    4.9212 C.3     1  UNL1        0.1413
     14 C          60.9379   92.1566    3.6895 C.ar    1  UNL1        0.0858
     15 C          60.0160   93.1326    3.0207 C.ar    1  UNL1        0.0530
     16 S          60.7275   93.7000    1.8283 S.2     1  UNL1       -0.0705
     17 C          62.0893   93.0746    1.7602 C.ar    1  UNL1        0.0875
     18 N          62.2193   92.1208    2.9105 N.ar    1  UNL1       -0.2453
     19 C          63.1370   93.3541    0.7238 C.3     1  UNL1        0.0465
     20 C          62.7327   93.6589   -0.6882 C.3     1  UNL1        0.0069
     21 C          64.5890   93.3287    1.0993 C.3     1  UNL1        0.0069
     22 C          58.9705   86.9978    7.6574 C.3     1  UNL1        0.1711
     23 C          61.1532   85.5995    7.4826 C.3     1  UNL1        0.1742
     24 O          59.6738   85.7302    7.2722 O.3     1  UNL1       -0.3488
     25 C          62.2188   90.2374   11.7080 C.3     1  UNL1        0.0459
     26 C          63.4584   91.0819   11.6871 C.ar    1  UNL1       -0.0205
     27 C          64.2562   91.2740   12.9427 C.ar    1  UNL1       -0.0042
     28 C          65.4957   92.1185   12.9218 C.ar    1  UNL1       -0.0003
     29 C          65.9375   92.7707   11.6454 C.ar    1  UNL1       -0.0000
     30 C          65.1397   92.5786   10.3897 C.ar    1  UNL1       -0.0003
     31 C          63.9001   91.7341   10.4106 C.ar    1  UNL1       -0.0042
     32 C          62.7374   87.6945   11.8293 C.3     1  UNL1        0.0216
     33 C          62.3809   86.3070   11.3849 C.3     1  UNL1        0.0217
     34 C          62.7964   85.1252   12.2101 C.3     1  UNL1        0.0792
     35 N          62.8551   85.2374   13.7047 N.am    1  UNL1       -0.2720
     36 C          64.1046   84.8479   14.4376 C.2     1  UNL1        0.4019
     37 O          65.2954   84.3461   13.6759 O.2     1  UNL1       -0.2264
     38 H          62.0736   85.5668   14.2047 H       1  UNL1        0.1527
     39 O          64.1633   84.9601   15.9323 O.3     1  UNL1       -0.4291
     40 C          63.3323   85.9887   16.6403 C.3     1  UNL1        0.2447
     41 C          63.4816   87.4408   16.2950 C.ar    1  UNL1        0.0714
     42 C          64.2365   87.9953   15.1233 C.ar    1  UNL1        0.1053
     43 N          64.1237   89.4905   15.1648 N.ar    1  UNL1       -0.2350
     44 C          63.2991   89.8601   16.3621 C.ar    1  UNL1        0.1343
     45 S          62.9023   88.5933   17.0606 S.2     1  UNL1       -0.0652
     46 C          63.1532   83.8312   11.5406 C.3     1  UNL1        0.0460
     47 C          62.7747   82.5273   12.1784 C.ar    1  UNL1       -0.0205
     48 C          62.0803   82.5165   13.5079 C.ar    1  UNL1       -0.0042
     49 C          61.7017   81.2127   14.1457 C.ar    1  UNL1       -0.0003
     50 C          62.0176   79.9197   13.4539 C.ar    1  UNL1       -0.0000
     51 C          62.7120   79.9306   12.1244 C.ar    1  UNL1       -0.0003
     52 C          63.0905   81.2344   11.4867 C.ar    1  UNL1       -0.0042
@<TRIPOS>BOND
     1    23    24    1
     2    24    22    1
     3     6    22    1
     4     6     7    1
     5     7     8   am
     6     8     9    2
     7     8    10   am
     8    10    11    1
     9    10    13    1
    10    13    14    1
    11    14    15   ar
    12    15    16   ar
    13    16    17   ar
    14    17    19    1
    15    19    20    1
    16    19    21    1
    17    17    18   ar
    18     6     2    1
    19     2     3    2
    20     2     4   am
    21     4     1    1
    22     1    32    1
    23    32    33    1
    24    34    33    1
    25    34    46    1
    26    46    47    1
    27    47    48   ar
    28    48    49   ar
    29    49    50   ar
    30    50    51   ar
    31    51    52   ar
    32    34    35    1
    33    35    36   am
    34    36    37    2
    35    36    39    1
    36    39    40    1
    37    40    41    1
    38    41    42   ar
    39    42    43   ar
    40    43    44   ar
    41    44    45   ar
    42     1    25    1
    43    25    26    1
    44    26    27   ar
    45    27    28   ar
    46    28    29   ar
    47    29    30   ar
    48    30    31   ar
    49    18    14   ar
    50    52    47   ar
    51    45    41   ar
    52    31    26   ar
    53     7    12    1
    54     4     5    1
    55    35    38    1
@<TRIPOS>MOLECULE
*****
 52 55 0 0 0
SMALL
GASTEIGER

@<TRIPOS>ATOM
      1 C          63.1355   85.9311   12.9076 C.3     1  UNL1        0.0760
      2 C          63.6615   87.9525   14.4527 C.2     1  UNL1        0.2429
      3 O          63.4882   87.0764   15.6579 O.2     1  UNL1       -0.2732
      4 N          63.4852   87.3799   13.0776 N.am    1  UNL1       -0.3042
      5 H          63.5990   87.9549   12.2866 H       1  UNL1        0.1494
      6 C          64.0112   89.4012   14.6227 C.3     1  UNL1        0.1796
      7 N          64.5405   90.1865   13.4594 N.am    1  UNL1       -0.2805
      8 C          63.6301   90.5516   12.3245 C.2     1  UNL1        0.3047
      9 O          62.1904   90.1315   12.3530 O.2     1  UNL1       -0.2526
     10 N          64.1594   91.3368   11.1612 N.am    1  UNL1       -0.2567
     11 C          63.2490   91.7019   10.0264 C.3     1  UNL1        0.1168
     12 H          65.4854   90.4622   13.4407 H       1  UNL1        0.1514
     13 C          65.5991   91.7569   11.1328 C.3     1  UNL1        0.1413
     14 C          66.1681   92.5615   12.2638 C.ar    1  UNL1        0.0858
     15 C          65.9743   94.0325   12.4842 C.ar    1  UNL1        0.0530
     16 S          66.7172   94.4164   13.7295 S.2     1  UNL1       -0.0705
     17 C          67.3702   93.1826   14.2787 C.ar    1  UNL1        0.0875
     18 N          67.0308   92.0363   13.3728 N.ar    1  UNL1       -0.2453
     19 C          68.2143   93.1083   15.5164 C.3     1  UNL1        0.0465
     20 C          68.3207   91.8189   16.2753 C.3     1  UNL1        0.0069
     21 C          68.9520   94.3235   15.9951 C.3     1  UNL1        0.0069
     22 C          63.8315   90.0647   15.9559 C.3     1  UNL1        0.1711
     23 C          64.7246   92.3799   16.7255 C.3     1  UNL1        0.1742
     24 O          63.6779   91.5546   16.0376 O.3     1  UNL1       -0.3488
     25 C          63.9465   84.8774   13.6020 C.3     1  UNL1        0.0459
     26 C          63.5099   83.4431   13.5555 C.ar    1  UNL1       -0.0205
     27 C          62.4525   82.9501   14.4982 C.ar    1  UNL1       -0.0042
     28 C          62.0159   81.5158   14.4517 C.ar    1  UNL1       -0.0003
     29 C          62.6367   80.5745   13.4625 C.ar    1  UNL1       -0.0000
     30 C          63.6942   81.0675   12.5198 C.ar    1  UNL1       -0.0003
     31 C          64.1308   82.5018   12.5662 C.ar    1  UNL1       -0.0042
     32 C          61.9750   85.5361   12.0433 C.3     1  UNL1        0.0216
     33 C          61.2805   86.5666   11.2033 C.3     1  UNL1        0.0217
     34 C          61.7838   86.8730    9.8238 C.3     1  UNL1        0.0792
     35 N          61.3547   88.1326    9.1315 N.am    1  UNL1       -0.2720
     36 C          59.9745   88.2380    8.5536 C.2     1  UNL1        0.4019
     37 O          59.0234   87.0837    8.6680 O.2     1  UNL1       -0.2264
     38 H          61.9790   88.8902    9.0565 H       1  UNL1        0.1527
     39 O          59.5454   89.4976    7.8614 O.3     1  UNL1       -0.4291
     40 C          58.9379   89.4309    6.4915 C.3     1  UNL1        0.2447
     41 C          59.0655   90.5973    5.5569 C.ar    1  UNL1        0.0714
     42 C          57.9418   91.4621    5.0677 C.ar    1  UNL1        0.1053
     43 N          58.5210   92.5029    4.1559 N.ar    1  UNL1       -0.2350
     44 C          60.0027   92.2812    4.0816 C.ar    1  UNL1        0.1343
     45 S          60.3392   91.1035    4.9475 S.2     1  UNL1       -0.0652
     46 C          62.7161   85.9198    9.1367 C.3     1  UNL1        0.0460
     47 C          62.3255   85.3016    7.8270 C.ar    1  UNL1       -0.0205
     48 C          63.3841   84.8720    6.8550 C.ar    1  UNL1       -0.0042
     49 C          62.9934   84.2538    5.5454 C.ar    1  UNL1       -0.0003
     50 C          61.5441   84.0651    5.2078 C.ar    1  UNL1       -0.0000
     51 C          60.4855   84.4947    6.1797 C.ar    1  UNL1       -0.0003
     52 C          60.8762   85.1129    7.4893 C.ar    1  UNL1       -0.0042
@<TRIPOS>BOND
     1    23    24    1
     2    24    22    1
     3     6    22    1
     4     6     7    1
     5     7     8   am
     6     8     9    2
     7     8    10   am
     8    10    11    1
     9    10    13    1
    10    13    14    1
    11    14    15   ar
    12    15    16   ar
    13    16    17   ar
    14    17    19    1
    15    19    20    1
    16    19    21    1
    17    17    18   ar
    18     6     2    1
    19     2     3    2
    20     2     4   am
    21     4     1    1
    22     1    32    1
    23    32    33    1
    24    34    33    1
    25    34    46    1
    26    46    47    1
    27    47    48   ar
    28    48    49   ar
    29    49    50   ar
    30    50    51   ar
    31    51    52   ar
    32    34    35    1
    33    35    36   am
    34    36    37    2
    35    36    39    1
    36    39    40    1
    37    40    41    1
    38    41    42   ar
    39    42    43   ar
    40    43    44   ar
    41    44    45   ar
    42     1    25    1
    43    25    26    1
    44    26    27   ar
    45    27    28   ar
    46    28    29   ar
    47    29    30   ar
    48    30    31   ar
    49    18    14   ar
    50    52    47   ar
    51    45    41   ar
    52    31    26   ar
    53     7    12    1
    54     4     5    1
    55    35    38    1
@<TRIPOS>MOLECULE
*****
 52 55 0 0 0
SMALL
GASTEIGER

@<TRIPOS>ATOM
      1 C          63.5824   84.0318   11.2238 C.3     1  UNL1        0.0760
      2 C          64.2841   85.0421   13.5123 C.2     1  UNL1        0.2429
      3 O          65.3799   84.0241   13.6257 O.2     1  UNL1       -0.2732
      4 N          63.3853   85.0459   12.3113 N.am    1  UNL1       -0.3042
      5 H          62.6660   85.7140   12.2369 H       1  UNL1        0.1494
      6 C          64.0870   86.0562   14.5998 C.3     1  UNL1        0.1796
      7 N          64.0434   87.5175   14.2637 N.am    1  UNL1       -0.2805
      8 C          63.7854   88.5277   15.3421 C.2     1  UNL1        0.3047
      9 O          63.5710   88.0766   16.7566 O.2     1  UNL1       -0.2526
     10 N          63.7418   89.9889   15.0061 N.am    1  UNL1       -0.2567
     11 C          63.4838   90.9991   16.0845 C.3     1  UNL1        0.1168
     12 H          64.1842   87.8135   13.3354 H       1  UNL1        0.1514
     13 C          63.9563   90.4399   13.5917 C.3     1  UNL1        0.1413
     14 C          64.9498   91.5231   13.2924 C.ar    1  UNL1        0.0858
     15 C          66.1528   91.8691   14.1188 C.ar    1  UNL1        0.0530
     16 S          66.8612   93.0104   13.4512 S.2     1  UNL1       -0.0705
     17 C          66.0959   93.3698   12.2121 C.ar    1  UNL1        0.0875
     18 N          64.9146   92.4506   12.1140 N.ar    1  UNL1       -0.2453
     19 C          66.4498   94.4573   11.2416 C.3     1  UNL1        0.0465
     20 C          67.1496   94.1191    9.9586 C.3     1  UNL1        0.0069
     21 C          66.1040   95.8831   11.5540 C.3     1  UNL1        0.0069
     22 C          63.9335   85.6091   16.0234 C.3     1  UNL1        0.1711
     23 C          61.3846   85.1560   15.8050 C.3     1  UNL1        0.1742
     24 O          62.7075   84.8543   16.4444 O.3     1  UNL1       -0.3488
     25 C          63.9451   82.6187   11.5728 C.3     1  UNL1        0.0459
     26 C          63.0279   81.7993   12.4315 C.ar    1  UNL1       -0.0205
     27 C          62.2239   82.4590   13.5124 C.ar    1  UNL1       -0.0042
     28 C          61.3068   81.6395   14.3711 C.ar    1  UNL1       -0.0003
     29 C          61.1936   80.1604   14.1490 C.ar    1  UNL1       -0.0000
     30 C          61.9976   79.5007   13.0680 C.ar    1  UNL1       -0.0003
     31 C          62.9148   80.3201   12.2093 C.ar    1  UNL1       -0.0042
     32 C          63.4169   84.4307    9.7874 C.3     1  UNL1        0.0216
     33 C          62.0500   84.7219    9.2426 C.3     1  UNL1        0.0217
     34 C          61.4594   86.0927    9.3922 C.3     1  UNL1        0.0792
     35 N          61.1822   86.9266    8.1766 N.am    1  UNL1       -0.2720
     36 C          59.7689   87.2685    7.8079 C.2     1  UNL1        0.4019
     37 O          58.6329   86.7764    8.6548 O.2     1  UNL1       -0.2264
     38 H          61.9278   87.2496    7.6208 H       1  UNL1        0.1527
     39 O          59.4917   88.1024    6.5923 O.3     1  UNL1       -0.4291
     40 C          58.6900   89.3642    6.7152 C.3     1  UNL1        0.2447
     41 C          58.8798   90.4731    5.7231 C.ar    1  UNL1        0.0714
     42 C          57.7927   91.3135    5.1215 C.ar    1  UNL1        0.1053
     43 N          58.4311   92.2961    4.1850 N.ar    1  UNL1       -0.2350
     44 C          59.9127   92.0629    4.2078 C.ar    1  UNL1        0.1343
     45 S          60.1900   90.9363    5.1584 S.2     1  UNL1       -0.0652
     46 C          61.1459   86.6294   10.7574 C.3     1  UNL1        0.0460
     47 C          60.9545   88.1036   10.9579 C.ar    1  UNL1       -0.0205
     48 C          62.0472   89.0598   10.5817 C.ar    1  UNL1       -0.0042
     49 C          61.8558   90.5339   10.7822 C.ar    1  UNL1       -0.0003
     50 C          60.5716   91.0518   11.3591 C.ar    1  UNL1       -0.0000
     51 C          59.4789   90.0956   11.7354 C.ar    1  UNL1       -0.0003
     52 C          59.6704   88.6215   11.5348 C.ar    1  UNL1       -0.0042
@<TRIPOS>BOND
     1    23    24    1
     2    24    22    1
     3     6    22    1
     4     6     7    1
     5     7     8   am
     6     8     9    2
     7     8    10   am
     8    10    11    1
     9    10    13    1
    10    13    14    1
    11    14    15   ar
    12    15    16   ar
    13    16    17   ar
    14    17    19    1
    15    19    20    1
    16    19    21    1
    17    17    18   ar
    18     6     2    1
    19     2     3    2
    20     2     4   am
    21     4     1    1
    22     1    32    1
    23    32    33    1
    24    34    33    1
    25    34    46    1
    26    46    47    1
    27    47    48   ar
    28    48    49   ar
    29    49    50   ar
    30    50    51   ar
    31    51    52   ar
    32    34    35    1
    33    35    36   am
    34    36    37    2
    35    36    39    1
    36    39    40    1
    37    40    41    1
    38    41    42   ar
    39    42    43   ar
    40    43    44   ar
    41    44    45   ar
    42     1    25    1
    43    25    26    1
    44    26    27   ar
    45    27    28   ar
    46    28    29   ar
    47    29    30   ar
    48    30    31   ar
    49    18    14   ar
    50    52    47   ar
    51    45    41   ar
    52    31    26   ar
    53     7    12    1
    54     4     5    1
    55    35    38    1
@<TRIPOS>MOLECULE
*****
 52 55 0 0 0
SMALL
GASTEIGER

@<TRIPOS>ATOM
      1 C          62.1231   88.6543   10.9337 C.3     1  UNL1        0.0760
      2 C          60.3641   89.2174    9.1064 C.2     1  UNL1        0.2429
      3 O          59.7753   90.2705    9.9977 O.2     1  UNL1       -0.2732
      4 N          61.5380   88.4093    9.5744 N.am    1  UNL1       -0.3042
      5 H          61.9245   87.7182    8.9894 H       1  UNL1        0.1494
      6 C          59.7790   88.9725    7.7471 C.3     1  UNL1        0.1796
      7 N          59.8267   90.0502    6.7047 N.am    1  UNL1       -0.2805
      8 C          58.5738   90.4539    5.9856 C.2     1  UNL1        0.3047
      9 O          57.2732   89.7799    6.3087 O.2     1  UNL1       -0.2526
     10 N          58.6214   91.5315    4.9433 N.am    1  UNL1       -0.2567
     11 C          57.3685   91.9352    4.2241 C.3     1  UNL1        0.1168
     12 H          60.6803   90.4925    6.4926 H       1  UNL1        0.1514
     13 C          59.9219   92.2054    4.6201 C.3     1  UNL1        0.1413
     14 C          60.2670   92.5259    3.1959 C.ar    1  UNL1        0.0858
     15 C          61.6324   92.4453    2.5800 C.ar    1  UNL1        0.0530
     16 S          61.5166   92.8528    1.1411 S.2     1  UNL1       -0.0705
     17 C          60.0796   93.1852    0.8677 C.ar    1  UNL1        0.0875
     18 N          59.3074   92.9832    2.1376 N.ar    1  UNL1       -0.2453
     19 C          59.5142   93.6399   -0.4452 C.3     1  UNL1        0.0465
     20 C          59.7661   95.0381   -0.9263 C.3     1  UNL1        0.0069
     21 C          58.6969   92.6963   -1.2769 C.3     1  UNL1        0.0069
     22 C          59.1464   87.6499    7.4301 C.3     1  UNL1        0.1711
     23 C          60.7626   85.6159    7.4200 C.3     1  UNL1        0.1742
     24 O          59.6627   86.3978    8.0747 O.3     1  UNL1       -0.3488
     25 C          62.0387   90.0185   11.5518 C.3     1  UNL1        0.0459
     26 C          63.2882   90.8155   11.7832 C.ar    1  UNL1       -0.0205
     27 C          63.9378   90.8160   13.1352 C.ar    1  UNL1       -0.0042
     28 C          65.1872   91.6131   13.3667 C.ar    1  UNL1       -0.0003
     29 C          65.7871   92.4097   12.2462 C.ar    1  UNL1       -0.0000
     30 C          65.1375   92.4092   10.8941 C.ar    1  UNL1       -0.0003
     31 C          63.8880   91.6121   10.6626 C.ar    1  UNL1       -0.0042
     32 C          62.7925   87.5352   11.6749 C.3     1  UNL1        0.0216
     33 C          62.1517   86.1799   11.7249 C.3     1  UNL1        0.0217
     34 C          62.9435   84.9925   12.1867 C.3     1  UNL1        0.0792
     35 N          62.6835   83.6403   11.5917 N.am    1  UNL1       -0.2720
     36 C          63.7369   82.9725   10.7582 C.2     1  UNL1        0.4019
     37 O          65.0501   83.6569   10.5197 O.2     1  UNL1       -0.2264
     38 H          61.8216   83.1911   11.7482 H       1  UNL1        0.1527
     39 O          63.4769   81.6203   10.1632 O.3     1  UNL1       -0.4291
     40 C          63.0522   80.4826   11.0436 C.3     1  UNL1        0.2447
     41 C          62.7416   80.7292   12.4903 C.ar    1  UNL1        0.0714
     42 C          63.7294   81.1172   13.5504 C.ar    1  UNL1        0.1053
     43 N          62.9871   81.2589   14.8461 N.ar    1  UNL1       -0.2350
     44 C          61.5406   80.9584   14.5869 C.ar    1  UNL1        0.1343
     45 S          61.3889   80.6310   13.1309 S.2     1  UNL1       -0.0652
     46 C          63.9952   85.1573   13.2434 C.3     1  UNL1        0.0460
     47 C          63.6308   85.7289   14.5815 C.ar    1  UNL1       -0.0205
     48 C          64.0363   87.1293   14.9345 C.ar    1  UNL1       -0.0042
     49 C          63.6719   87.7008   16.2725 C.ar    1  UNL1       -0.0003
     50 C          62.9021   86.8721   17.2577 C.ar    1  UNL1       -0.0000
     51 C          62.4967   85.4717   16.9048 C.ar    1  UNL1       -0.0003
     52 C          62.8610   84.9001   15.5667 C.ar    1  UNL1       -0.0042
@<TRIPOS>BOND
     1    23    24    1
     2    24    22    1
     3     6    22    1
     4     6     7    1
     5     7     8   am
     6     8     9    2
     7     8    10   am
     8    10    11    1
     9    10    13    1
    10    13    14    1
    11    14    15   ar
    12    15    16   ar
    13    16    17   ar
    14    17    19    1
    15    19    20    1
    16    19    21    1
    17    17    18   ar
    18     6     2    1
    19     2     3    2
    20     2     4   am
    21     4     1    1
    22     1    32    1
    23    32    33    1
    24    34    33    1
    25    34    46    1
    26    46    47    1
    27    47    48   ar
    28    48    49   ar
    29    49    50   ar
    30    50    51   ar
    31    51    52   ar
    32    34    35    1
    33    35    36   am
    34    36    37    2
    35    36    39    1
    36    39    40    1
    37    40    41    1
    38    41    42   ar
    39    42    43   ar
    40    43    44   ar
    41    44    45   ar
    42     1    25    1
    43    25    26    1
    44    26    27   ar
    45    27    28   ar
    46    28    29   ar
    47    29    30   ar
    48    30    31   ar
    49    18    14   ar
    50    52    47   ar
    51    45    41   ar
    52    31    26   ar
    53     7    12    1
    54     4     5    1
    55    35    38    1
@<TRIPOS>MOLECULE
*****
 52 55 0 0 0
SMALL
GASTEIGER

@<TRIPOS>ATOM
      1 C          62.6009   86.8587   11.5313 C.3     1  UNL1        0.0760
      2 C          61.4657   89.0751   10.7904 C.2     1  UNL1        0.2429
      3 O          62.8145   89.6853   10.5491 O.2     1  UNL1       -0.2732
      4 N          61.3589   87.6618   11.2816 N.am    1  UNL1       -0.3042
      5 H          60.4736   87.2613   11.4400 H       1  UNL1        0.1494
      6 C          60.2237   89.8782   10.5406 C.3     1  UNL1        0.1796
      7 N          59.7431   90.0992    9.1369 N.am    1  UNL1       -0.2805
      8 C          59.7202   88.9581    8.1636 C.2     1  UNL1        0.3047
      9 O          60.1778   87.5960    8.5939 O.2     1  UNL1       -0.2526
     10 N          59.2398   89.1792    6.7599 N.am    1  UNL1       -0.2567
     11 C          59.2169   88.0381    5.7866 C.3     1  UNL1        0.1168
     12 H          59.4428   90.9933    8.8545 H       1  UNL1        0.1514
     13 C          58.7822   90.5413    6.3296 C.3     1  UNL1        0.1413
     14 C          59.4763   91.2437    5.2004 C.ar    1  UNL1        0.0858
     15 C          58.8636   92.2634    4.2869 C.ar    1  UNL1        0.0530
     16 S          59.9136   92.6996    3.3084 S.2     1  UNL1       -0.0705
     17 C          61.1753   91.9493    3.6173 C.ar    1  UNL1        0.0875
     18 N          60.9050   91.0496    4.7866 N.ar    1  UNL1       -0.2453
     19 C          62.4784   92.0766    2.8854 C.3     1  UNL1        0.0465
     20 C          63.5450   91.0376    3.0668 C.3     1  UNL1        0.0069
     21 C          62.7149   93.2428    1.9721 C.3     1  UNL1        0.0069
     22 C          59.4621   90.4601   11.6944 C.3     1  UNL1        0.1711
     23 C          58.1710   88.7728   13.1897 C.3     1  UNL1        0.1742
     24 O          59.3382   89.6904   12.9759 O.3     1  UNL1       -0.3488
     25 C          63.0301   85.8143   10.5438 C.3     1  UNL1        0.0459
     26 C          63.0514   84.3685   10.9428 C.ar    1  UNL1       -0.0205
     27 C          62.3139   83.9179   12.1687 C.ar    1  UNL1       -0.0042
     28 C          62.3352   82.4721   12.5677 C.ar    1  UNL1       -0.0003
     29 C          63.0940   81.4769   11.7408 C.ar    1  UNL1       -0.0000
     30 C          63.8315   81.9276   10.5148 C.ar    1  UNL1       -0.0003
     31 C          63.8102   83.3734   10.1157 C.ar    1  UNL1       -0.0042
     32 C          63.4138   87.0999   12.7686 C.3     1  UNL1        0.0216
     33 C          63.7089   88.5026   13.2105 C.3     1  UNL1        0.0217
     34 C          64.3108   88.7525   14.5616 C.3     1  UNL1        0.0792
     35 N          65.2239   89.9240   14.7708 N.am    1  UNL1       -0.2720
     36 C          64.6994   91.1808   15.3996 C.2     1  UNL1        0.4019
     37 O          63.2618   91.2661   15.8192 O.2     1  UNL1       -0.2264
     38 H          66.1674   89.8680   14.4954 H       1  UNL1        0.1527
     39 O          65.6125   92.3523   15.6088 O.3     1  UNL1       -0.4291
     40 C          66.9764   92.3610   14.9846 C.3     1  UNL1        0.2447
     41 C          67.1195   92.4891   13.4970 C.ar    1  UNL1        0.0714
     42 C          68.1800   91.8443   12.6545 C.ar    1  UNL1        0.1053
     43 N          67.9433   92.2411   11.2274 N.ar    1  UNL1       -0.2350
     44 C          66.7364   93.1311   11.1879 C.ar    1  UNL1        0.1343
     45 S          66.2274   93.2843   12.5905 S.2     1  UNL1       -0.0652
     46 C          63.9995   87.8309   15.7033 C.3     1  UNL1        0.0460
     47 C          64.0661   86.3452   15.5076 C.ar    1  UNL1       -0.0205
     48 C          65.2241   85.7365   14.7739 C.ar    1  UNL1       -0.0042
     49 C          65.2907   84.2509   14.5781 C.ar    1  UNL1       -0.0003
     50 C          64.1992   83.3739   15.1162 C.ar    1  UNL1       -0.0000
     51 C          63.0411   83.9825   15.8499 C.ar    1  UNL1       -0.0003
     52 C          62.9746   85.4681   16.0456 C.ar    1  UNL1       -0.0042
@<TRIPOS>BOND
     1    23    24    1
     2    24    22    1
     3     6    22    1
     4     6     7    1
     5     7     8   am
     6     8     9    2
     7     8    10   am
     8    10    11    1
     9    10    13    1
    10    13    14    1
    11    14    15   ar
    12    15    16   ar
    13    16    17   ar
    14    17    19    1
    15    19    20    1
    16    19    21    1
    17    17    18   ar
    18     6     2    1
    19     2     3    2
    20     2     4   am
    21     4     1    1
    22     1    32    1
    23    32    33    1
    24    34    33    1
    25    34    46    1
    26    46    47    1
    27    47    48   ar
    28    48    49   ar
    29    49    50   ar
    30    50    51   ar
    31    51    52   ar
    32    34    35    1
    33    35    36   am
    34    36    37    2
    35    36    39    1
    36    39    40    1
    37    40    41    1
    38    41    42   ar
    39    42    43   ar
    40    43    44   ar
    41    44    45   ar
    42     1    25    1
    43    25    26    1
    44    26    27   ar
    45    27    28   ar
    46    28    29   ar
    47    29    30   ar
    48    30    31   ar
    49    18    14   ar
    50    52    47   ar
    51    45    41   ar
    52    31    26   ar
    53     7    12    1
    54     4     5    1
    55    35    38    1
@<TRIPOS>MOLECULE
*****
 52 55 0 0 0
SMALL
GASTEIGER

@<TRIPOS>ATOM
      1 C          63.7453   89.5693   13.1079 C.3     1  UNL1        0.0760
      2 C          63.7850   87.5785   14.7768 C.2     1  UNL1        0.2429
      3 O          63.5486   88.5273   15.9143 O.2     1  UNL1       -0.2732
      4 N          63.8834   88.0995   13.3736 N.am    1  UNL1       -0.3042
      5 H          64.0386   87.4767   12.6270 H       1  UNL1        0.1494
      6 C          63.9231   86.1087   15.0425 C.3     1  UNL1        0.1796
      7 N          64.0999   85.1533   13.8997 N.am    1  UNL1       -0.2805
      8 C          63.8871   83.6836   14.1111 C.2     1  UNL1        0.3047
      9 O          63.4976   83.1693   15.4653 O.2     1  UNL1       -0.2526
     10 N          64.0639   82.7282   12.9683 N.am    1  UNL1       -0.2567
     11 C          63.8511   81.2585   13.1797 C.3     1  UNL1        0.1168
     12 H          64.3555   85.4909   13.0109 H       1  UNL1        0.1514
     13 C          64.4534   83.2425   11.6142 C.3     1  UNL1        0.1413
     14 C          63.4778   84.0488   10.8090 C.ar    1  UNL1        0.0858
     15 C          62.5142   85.0632   11.3497 C.ar    1  UNL1        0.0530
     16 S          61.7355   85.6235   10.1966 S.2     1  UNL1       -0.0705
     17 C          62.2178   84.9553    8.9432 C.ar    1  UNL1        0.0875
     18 N          63.2947   83.9821    9.3217 N.ar    1  UNL1       -0.2453
     19 C          61.7121   85.2149    7.5550 C.3     1  UNL1        0.0465
     20 C          60.4632   86.0200    7.3501 C.3     1  UNL1        0.0069
     21 C          62.4554   84.6693    6.3718 C.3     1  UNL1        0.0069
     22 C          63.8844   85.5943   16.4510 C.3     1  UNL1        0.1711
     23 C          62.6461   86.7323   18.4313 C.3     1  UNL1        0.1742
     24 O          62.6469   85.7707   17.2802 O.3     1  UNL1       -0.3488
     25 C          63.4772   90.0577   11.7151 C.3     1  UNL1        0.0459
     26 C          62.1456   89.8016   11.0739 C.ar    1  UNL1       -0.0205
     27 C          62.0777   89.2217    9.6922 C.ar    1  UNL1       -0.0042
     28 C          60.7461   88.9656    9.0509 C.ar    1  UNL1       -0.0003
     29 C          59.4824   89.2894    9.7913 C.ar    1  UNL1       -0.0000
     30 C          59.5503   89.8694   11.1731 C.ar    1  UNL1       -0.0003
     31 C          60.8819   90.1255   11.8143 C.ar    1  UNL1       -0.0042
     32 C          63.8753   90.5506   14.2348 C.3     1  UNL1        0.0216
     33 C          65.2259   91.0803   14.6160 C.3     1  UNL1        0.0217
     34 C          65.7987   92.2636   13.8936 C.3     1  UNL1        0.0792
     35 N          65.8293   92.2840   12.3940 N.am    1  UNL1       -0.2720
     36 C          67.1314   92.1178   11.6681 C.2     1  UNL1        0.4019
     37 O          68.4029   91.9312   12.4417 O.2     1  UNL1       -0.2264
     38 H          64.9948   92.4065   11.8863 H       1  UNL1        0.1527
     39 O          67.1620   92.1383   10.1685 O.3     1  UNL1       -0.4291
     40 C          67.8648   93.2503    9.4478 C.3     1  UNL1        0.2447
     41 C          67.2878   94.6349    9.4607 C.ar    1  UNL1        0.0714
     42 C          66.6422   95.3102   10.6342 C.ar    1  UNL1        0.1053
     43 N          66.2106   96.6799   10.2011 N.ar    1  UNL1       -0.2350
     44 C          66.5895   96.8512    8.7598 C.ar    1  UNL1        0.1343
     45 S          67.2552   95.5873    8.3023 S.2     1  UNL1       -0.0652
     46 C          66.3409   93.4263   14.6707 C.3     1  UNL1        0.0460
     47 C          67.6449   93.2977   15.4010 C.ar    1  UNL1       -0.0205
     48 C          68.5493   94.4867   15.5361 C.ar    1  UNL1       -0.0042
     49 C          69.8531   94.3581   16.2664 C.ar    1  UNL1       -0.0003
     50 C          70.2525   93.0405   16.8616 C.ar    1  UNL1       -0.0000
     51 C          69.3481   91.8515   16.7266 C.ar    1  UNL1       -0.0003
     52 C          68.0443   91.9801   15.9963 C.ar    1  UNL1       -0.0042
@<TRIPOS>BOND
     1    23    24    1
     2    24    22    1
     3     6    22    1
     4     6     7    1
     5     7     8   am
     6     8     9    2
     7     8    10   am
     8    10    11    1
     9    10    13    1
    10    13    14    1
    11    14    15   ar
    12    15    16   ar
    13    16    17   ar
    14    17    19    1
    15    19    20    1
    16    19    21    1
    17    17    18   ar
    18     6     2    1
    19     2     3    2
    20     2     4   am
    21     4     1    1
    22     1    32    1
    23    32    33    1
    24    34    33    1
    25    34    46    1
    26    46    47    1
    27    47    48   ar
    28    48    49   ar
    29    49    50   ar
    30    50    51   ar
    31    51    52   ar
    32    34    35    1
    33    35    36   am
    34    36    37    2
    35    36    39    1
    36    39    40    1
    37    40    41    1
    38    41    42   ar
    39    42    43   ar
    40    43    44   ar
    41    44    45   ar
    42     1    25    1
    43    25    26    1
    44    26    27   ar
    45    27    28   ar
    46    28    29   ar
    47    29    30   ar
    48    30    31   ar
    49    18    14   ar
    50    52    47   ar
    51    45    41   ar
    52    31    26   ar
    53     7    12    1
    54     4     5    1
    55    35    38    1
@<TRIPOS>MOLECULE
*****
 52 55 0 0 0
SMALL
GASTEIGER

@<TRIPOS>ATOM
      1 C          62.3824   89.0693   10.8758 C.3     1  UNL1        0.0760
      2 C          60.3610   88.9656    9.2468 C.2     1  UNL1        0.2429
      3 O          59.4361   89.3251   10.3716 O.2     1  UNL1       -0.2732
      4 N          61.8342   88.8377    9.4989 N.am    1  UNL1       -0.3042
      5 H          62.4413   88.6017    8.7606 H       1  UNL1        0.1494
      6 C          59.8129   88.7340    7.8699 C.3     1  UNL1        0.1796
      7 N          60.2680   89.5927    6.7272 N.am    1  UNL1       -0.2805
      8 C          59.2692   90.3975    5.9496 C.2     1  UNL1        0.3047
      9 O          57.8152   90.3436    6.3148 O.2     1  UNL1       -0.2526
     10 N          59.7242   91.2562    4.8070 N.am    1  UNL1       -0.2567
     11 C          58.7254   92.0610    4.0295 C.3     1  UNL1        0.1168
     12 H          61.2222   89.6280    6.4876 H       1  UNL1        0.1514
     13 C          61.1781   91.3100    4.4420 C.3     1  UNL1        0.1413
     14 C          61.6427   92.2216    3.3450 C.ar    1  UNL1        0.0858
     15 C          60.7620   92.9956    2.4095 C.ar    1  UNL1        0.0530
     16 S          61.6446   93.7715    1.4773 S.2     1  UNL1       -0.0705
     17 C          63.0709   93.4770    1.8367 C.ar    1  UNL1        0.0875
     18 N          63.0697   92.5191    2.9910 N.ar    1  UNL1       -0.2453
     19 C          64.2851   94.0413    1.1605 C.3     1  UNL1        0.0465
     20 C          65.4086   93.1333    0.7567 C.3     1  UNL1        0.0069
     21 C          64.3757   95.5136    0.8881 C.3     1  UNL1        0.0069
     22 C          58.8097   87.6438    7.6356 C.3     1  UNL1        0.1711
     23 C          60.7118   85.8743    7.6061 C.3     1  UNL1        0.1742
     24 O          59.2730   86.2385    7.3891 O.3     1  UNL1       -0.3488
     25 C          62.4448   90.4602   11.4340 C.3     1  UNL1        0.0459
     26 C          63.6938   90.9412   12.1113 C.ar    1  UNL1       -0.0205
     27 C          64.0326   90.4584   13.4904 C.ar    1  UNL1       -0.0042
     28 C          65.2815   90.9394   14.1677 C.ar    1  UNL1       -0.0003
     29 C          66.1918   91.9031   13.4658 C.ar    1  UNL1       -0.0000
     30 C          65.8530   92.3859   12.0866 C.ar    1  UNL1       -0.0003
     31 C          64.6040   91.9050   11.4093 C.ar    1  UNL1       -0.0042
     32 C          62.8681   87.9101   11.6945 C.3     1  UNL1        0.0216
     33 C          62.2074   86.5699   11.5629 C.3     1  UNL1        0.0217
     34 C          62.9113   85.3361   12.0449 C.3     1  UNL1        0.0792
     35 N          62.5665   83.9988   11.4594 N.am    1  UNL1       -0.2720
     36 C          63.6118   83.2068   10.7313 C.2     1  UNL1        0.4019
     37 O          65.0018   83.7520   10.5887 O.2     1  UNL1       -0.2264
     38 H          61.6541   83.6410   11.5530 H       1  UNL1        0.1527
     39 O          63.2669   81.8695   10.1458 O.3     1  UNL1       -0.4291
     40 C          62.9704   80.7093   11.0490 C.3     1  UNL1        0.2447
     41 C          62.8472   80.9229   12.5286 C.ar    1  UNL1        0.0714
     42 C          61.5721   80.9087   13.3184 C.ar    1  UNL1        0.1053
     43 N          61.9144   81.1653   14.7561 N.ar    1  UNL1       -0.2350
     44 C          63.4011   81.3382   14.8549 C.ar    1  UNL1        0.1343
     45 S          63.9776   81.1884   13.4782 S.2     1  UNL1       -0.0652
     46 C          63.9600   85.4396   13.1123 C.3     1  UNL1        0.0460
     47 C          63.5709   85.8114   14.5125 C.ar    1  UNL1       -0.0205
     48 C          63.9701   87.1442   15.0731 C.ar    1  UNL1       -0.0042
     49 C          63.5810   87.5159   16.4732 C.ar    1  UNL1       -0.0003
     50 C          62.7927   86.5548   17.3128 C.ar    1  UNL1       -0.0000
     51 C          62.3935   85.2220   16.7522 C.ar    1  UNL1       -0.0003
     52 C          62.7826   84.8503   15.3521 C.ar    1  UNL1       -0.0042
@<TRIPOS>BOND
     1    23    24    1
     2    24    22    1
     3     6    22    1
     4     6     7    1
     5     7     8   am
     6     8     9    2
     7     8    10   am
     8    10    11    1
     9    10    13    1
    10    13    14    1
    11    14    15   ar
    12    15    16   ar
    13    16    17   ar
    14    17    19    1
    15    19    20    1
    16    19    21    1
    17    17    18   ar
    18     6     2    1
    19     2     3    2
    20     2     4   am
    21     4     1    1
    22     1    32    1
    23    32    33    1
    24    34    33    1
    25    34    46    1
    26    46    47    1
    27    47    48   ar
    28    48    49   ar
    29    49    50   ar
    30    50    51   ar
    31    51    52   ar
    32    34    35    1
    33    35    36   am
    34    36    37    2
    35    36    39    1
    36    39    40    1
    37    40    41    1
    38    41    42   ar
    39    42    43   ar
    40    43    44   ar
    41    44    45   ar
    42     1    25    1
    43    25    26    1
    44    26    27   ar
    45    27    28   ar
    46    28    29   ar
    47    29    30   ar
    48    30    31   ar
    49    18    14   ar
    50    52    47   ar
    51    45    41   ar
    52    31    26   ar
    53     7    12    1
    54     4     5    1
    55    35    38    1
