@<TRIPOS>MOLECULE
*****
 36 41 0 0 0
SMALL
GASTEIGER

@<TRIPOS>ATOM
      1 C          63.0976   86.9973   17.5831 C.3     1  UNL1        0.0298
      2 C          63.2863   87.2935   16.1247 C.3     1  UNL1        0.1343
      3 C          63.5075   88.7052   15.6686 C.ar    1  UNL1        0.1615
      4 N          63.5884   90.0014   16.4190 N.ar    1  UNL1       -0.1316
      5 N          63.8271   91.0986   15.4245 N.ar    1  UNL1       -0.1274
      6 C          63.8938   90.4805   14.0594 C.ar    1  UNL1        0.1846
      7 N          63.6962   89.0013   14.2102 N.ar    1  UNL1       -0.2944
      8 C          63.6638   87.8857   13.2081 C.3     1  UNL1        0.1302
      9 C          63.4427   86.4739   13.6643 C.3     1  UNL1        0.1186
     10 N          63.2540   86.1778   15.1225 N.am    1  UNL1       -0.2688
     11 C          63.0328   84.7660   15.5787 C.2     1  UNL1        0.2493
     12 O          62.8441   84.4699   17.0370 O.2     1  UNL1       -0.2699
     13 C          63.0004   83.6504   14.5765 C.ar    1  UNL1        0.0536
     14 C          61.8729   82.6612   14.5916 C.ar    1  UNL1        0.0045
     15 C          61.8405   81.5456   13.5894 C.ar    1  UNL1        0.0006
     16 C          62.9356   81.4191   12.5722 C.ar    1  UNL1        0.0060
     17 C          64.0632   82.4084   12.5572 C.ar    1  UNL1        0.0006
     18 C          64.0956   83.5240   13.5593 C.ar    1  UNL1        0.0045
     19 C          62.9033   80.3036   11.5700 C.ar    1  UNL1        0.0295
     20 C          63.0968   80.4427   10.0891 C.ar    1  UNL1        0.0070
     21 C          62.9850   79.0780    9.4767 C.ar    1  UNL1        0.0075
     22 C          62.7223   78.0954   10.5792 C.ar    1  UNL1        0.0354
     23 S          62.6718   78.8528   11.8729 S.2     1  UNL1       -0.0864
     24 C          64.1185   91.2131   12.7699 C.ar    1  UNL1        0.1241
     25 C          63.3307   91.0351   11.5059 C.ar    1  UNL1        0.0591
     26 S          63.8959   91.9643   10.4728 S.2     1  UNL1       -0.0658
     27 C          65.0329   92.7166   11.0983 C.ar    1  UNL1        0.1130
     28 N          65.1705   92.2523   12.5180 N.ar    1  UNL1       -0.2352
     29 C          65.8830   93.7514   10.4228 C.ar    1  UNL1        0.0514
     30 C          65.4616   95.1911   10.4325 C.ar    1  UNL1        0.0066
     31 C          66.3118   96.2259    9.7569 C.ar    1  UNL1        0.0298
     32 C          67.5833   95.8211    9.0717 C.ar    1  UNL1        0.1424
     33 F          68.4335   96.8560    8.3962 F       1  UNL1       -0.2041
     34 C          68.0047   94.3816    9.0621 C.ar    1  UNL1        0.0593
     35 C          67.1545   93.3467    9.7376 C.ar    1  UNL1        0.1443
     36 F          67.5759   91.9071    9.7280 F       1  UNL1       -0.2040
@<TRIPOS>BOND
     1     2     1    1
     2     2     3    1
     3     3     4   ar
     4     4     5   ar
     5     5     6   ar
     6     6    24    1
     7    24    25   ar
     8    25    26   ar
     9    26    27   ar
    10    27    29    1
    11    29    30   ar
    12    30    31   ar
    13    31    32   ar
    14    32    33    1
    15    32    34   ar
    16    34    35   ar
    17    35    36    1
    18    27    28   ar
    19     6     7   ar
    20     7     8    1
    21     8     9    1
    22     9    10    1
    23    10    11   am
    24    11    12    2
    25    11    13    1
    26    13    14   ar
    27    14    15   ar
    28    15    16   ar
    29    16    19    1
    30    19    20   ar
    31    20    21   ar
    32    21    22   ar
    33    22    23   ar
    34    16    17   ar
    35    17    18   ar
    36    10     2    1
    37    18    13   ar
    38     7     3   ar
    39    23    19   ar
    40    28    24   ar
    41    35    29   ar
@<TRIPOS>MOLECULE
*****
 36 41 0 0 0
SMALL
GASTEIGER

@<TRIPOS>ATOM
      1 C          60.9081   85.9067   10.8356 C.3     1  UNL1        0.0298
      2 C          61.0282   87.2505   10.1801 C.3     1  UNL1        0.1343
      3 C          60.2715   87.5395    8.9176 C.ar    1  UNL1        0.1615
      4 N          59.3375   86.7037    8.0936 N.ar    1  UNL1       -0.1316
      5 N          58.8804   87.5310    6.9289 N.ar    1  UNL1       -0.1274
      6 C          59.5319   88.8781    7.0330 C.ar    1  UNL1        0.1846
      7 N          60.3917   88.8834    8.2621 N.ar    1  UNL1       -0.2944
      8 C          61.2685   89.9382    8.8692 C.3     1  UNL1        0.1302
      9 C          62.0251   89.6492   10.1317 C.3     1  UNL1        0.1186
     10 N          61.9050   88.3055   10.7871 N.am    1  UNL1       -0.2688
     11 C          62.6618   88.0165   12.0497 C.2     1  UNL1        0.2493
     12 O          62.5416   86.6726   12.7051 O.2     1  UNL1       -0.2699
     13 C          63.5386   89.0713   12.6567 C.ar    1  UNL1        0.0536
     14 C          63.7291   90.3833   11.9549 C.ar    1  UNL1        0.0045
     15 C          64.6060   91.4381   12.5620 C.ar    1  UNL1        0.0006
     16 C          65.2922   91.1810   13.8707 C.ar    1  UNL1        0.0060
     17 C          65.1016   89.8690   14.5725 C.ar    1  UNL1        0.0006
     18 C          64.2248   88.8142   13.9655 C.ar    1  UNL1        0.0045
     19 C          66.1690   92.2358   14.4779 C.ar    1  UNL1        0.0295
     20 C          66.8000   92.1826   15.8376 C.ar    1  UNL1        0.0070
     21 C          67.5897   93.4430   16.0318 C.ar    1  UNL1        0.0075
     22 C          67.4468   94.2752   14.7921 C.ar    1  UNL1        0.0354
     23 S          66.5688   93.5291   13.8317 S.2     1  UNL1       -0.0864
     24 C          59.3546   90.0195    6.0761 C.ar    1  UNL1        0.1241
     25 C          58.0870   90.7874    5.8447 C.ar    1  UNL1        0.0591
     26 S          58.3629   91.8359    4.8081 S.2     1  UNL1       -0.0658
     27 C          59.8010   91.7160    4.3988 C.ar    1  UNL1        0.1130
     28 N          60.4139   90.5934    5.1825 N.ar    1  UNL1       -0.2352
     29 C          60.5030   92.5690    3.3840 C.ar    1  UNL1        0.0514
     30 C          59.7769   93.7068    2.7295 C.ar    1  UNL1        0.0066
     31 C          60.4788   94.5598    1.7148 C.ar    1  UNL1        0.0298
     32 C          61.9068   94.2749    1.3545 C.ar    1  UNL1        0.1424
     33 F          62.6088   95.1278    0.3397 F       1  UNL1       -0.2041
     34 C          62.6328   93.1371    2.0089 C.ar    1  UNL1        0.0593
     35 C          61.9309   92.2841    3.0237 C.ar    1  UNL1        0.1443
     36 F          62.6569   91.1463    3.6782 F       1  UNL1       -0.2040
@<TRIPOS>BOND
     1     2     1    1
     2     2     3    1
     3     3     4   ar
     4     4     5   ar
     5     5     6   ar
     6     6    24    1
     7    24    25   ar
     8    25    26   ar
     9    26    27   ar
    10    27    29    1
    11    29    30   ar
    12    30    31   ar
    13    31    32   ar
    14    32    33    1
    15    32    34   ar
    16    34    35   ar
    17    35    36    1
    18    27    28   ar
    19     6     7   ar
    20     7     8    1
    21     8     9    1
    22     9    10    1
    23    10    11   am
    24    11    12    2
    25    11    13    1
    26    13    14   ar
    27    14    15   ar
    28    15    16   ar
    29    16    19    1
    30    19    20   ar
    31    20    21   ar
    32    21    22   ar
    33    22    23   ar
    34    16    17   ar
    35    17    18   ar
    36    10     2    1
    37    18    13   ar
    38     7     3   ar
    39    23    19   ar
    40    28    24   ar
    41    35    29   ar
@<TRIPOS>MOLECULE
*****
 36 41 0 0 0
SMALL
GASTEIGER

@<TRIPOS>ATOM
      1 C          62.8033   90.1046   17.4635 C.3     1  UNL1        0.0298
      2 C          63.3048   89.1179   16.4510 C.3     1  UNL1        0.1343
      3 C          63.0704   87.6503   16.6539 C.ar    1  UNL1        0.1615
      4 N          62.3827   86.8852   17.7455 N.ar    1  UNL1       -0.1316
      5 N          62.4592   85.4257   17.4077 N.ar    1  UNL1       -0.1274
      6 C          63.1941   85.2888   16.1073 C.ar    1  UNL1        0.1846
      7 N          63.5718   86.6636   15.6414 N.ar    1  UNL1       -0.2944
      8 C          64.3077   87.1447   14.4260 C.3     1  UNL1        0.1302
      9 C          64.5420   88.6123   14.2231 C.3     1  UNL1        0.1186
     10 N          64.0406   89.5988   15.2355 N.am    1  UNL1       -0.2688
     11 C          64.2750   91.0665   15.0326 C.2     1  UNL1        0.2493
     12 O          63.7735   92.0531   16.0451 O.2     1  UNL1       -0.2699
     13 C          65.0108   91.5475   13.8172 C.ar    1  UNL1        0.0536
     14 C          64.2810   91.7204   12.5182 C.ar    1  UNL1        0.0045
     15 C          65.0169   92.2014   11.3028 C.ar    1  UNL1        0.0006
     16 C          66.4824   92.5095   11.3864 C.ar    1  UNL1        0.0060
     17 C          67.2123   92.3367   12.6855 C.ar    1  UNL1        0.0006
     18 C          66.4765   91.8557   13.9009 C.ar    1  UNL1        0.0045
     19 C          67.2184   92.9906   10.1711 C.ar    1  UNL1        0.0295
     20 C          68.2673   92.2289    9.4165 C.ar    1  UNL1        0.0070
     21 C          68.7317   93.0854    8.2760 C.ar    1  UNL1        0.0075
     22 C          67.9698   94.3765    8.3258 C.ar    1  UNL1        0.0354
     23 S          67.0344   94.3179    9.4970 S.2     1  UNL1       -0.0864
     24 C          63.4979   84.0028   15.3974 C.ar    1  UNL1        0.1241
     25 C          64.3849   82.9044   15.9039 C.ar    1  UNL1        0.0591
     26 S          64.4032   81.8122   14.8759 S.2     1  UNL1       -0.0658
     27 C          63.5274   82.2356   13.7341 C.ar    1  UNL1        0.1130
     28 N          62.9679   83.5894   14.0564 N.ar    1  UNL1       -0.2352
     29 C          63.2584   81.4440   12.4886 C.ar    1  UNL1        0.0514
     30 C          62.7323   80.0429   12.5894 C.ar    1  UNL1        0.0066
     31 C          62.4632   79.2514   11.3440 C.ar    1  UNL1        0.0298
     32 C          62.7203   79.8610    9.9977 C.ar    1  UNL1        0.1424
     33 F          62.4513   79.0695    8.7523 F       1  UNL1       -0.2041
     34 C          63.2464   81.2621    9.8970 C.ar    1  UNL1        0.0593
     35 C          63.5154   82.0536   11.1424 C.ar    1  UNL1        0.1443
     36 F          64.0415   83.4547   11.0416 F       1  UNL1       -0.2040
@<TRIPOS>BOND
     1     2     1    1
     2     2     3    1
     3     3     4   ar
     4     4     5   ar
     5     5     6   ar
     6     6    24    1
     7    24    25   ar
     8    25    26   ar
     9    26    27   ar
    10    27    29    1
    11    29    30   ar
    12    30    31   ar
    13    31    32   ar
    14    32    33    1
    15    32    34   ar
    16    34    35   ar
    17    35    36    1
    18    27    28   ar
    19     6     7   ar
    20     7     8    1
    21     8     9    1
    22     9    10    1
    23    10    11   am
    24    11    12    2
    25    11    13    1
    26    13    14   ar
    27    14    15   ar
    28    15    16   ar
    29    16    19    1
    30    19    20   ar
    31    20    21   ar
    32    21    22   ar
    33    22    23   ar
    34    16    17   ar
    35    17    18   ar
    36    10     2    1
    37    18    13   ar
    38     7     3   ar
    39    23    19   ar
    40    28    24   ar
    41    35    29   ar
@<TRIPOS>MOLECULE
*****
 36 41 0 0 0
SMALL
GASTEIGER

@<TRIPOS>ATOM
      1 C          62.3411   88.2490   17.8363 C.3     1  UNL1        0.0298
      2 C          63.0948   88.4210   16.5509 C.3     1  UNL1        0.1343
      3 C          63.7539   89.7315   16.2374 C.ar    1  UNL1        0.1615
      4 N          63.8308   91.0231   16.9963 N.ar    1  UNL1       -0.1316
      5 N          64.6321   91.9933   16.1799 N.ar    1  UNL1       -0.1274
      6 C          65.0504   91.3014   14.9164 C.ar    1  UNL1        0.1846
      7 N          64.5076   89.9035   14.9520 N.ar    1  UNL1       -0.2944
      8 C          64.6022   88.7650   13.9800 C.3     1  UNL1        0.1302
      9 C          63.9432   87.4545   14.2934 C.3     1  UNL1        0.1186
     10 N          63.1895   87.2825   15.5788 N.am    1  UNL1       -0.2688
     11 C          62.5304   85.9719   15.8922 C.2     1  UNL1        0.2493
     12 O          61.7767   85.8000   17.1776 O.2     1  UNL1       -0.2699
     13 C          62.6251   84.8334   14.9202 C.ar    1  UNL1        0.0536
     14 C          62.5632   85.0994   13.4452 C.ar    1  UNL1        0.0045
     15 C          62.6578   83.9608   12.4732 C.ar    1  UNL1        0.0006
     16 C          62.8144   82.5564   12.9761 C.ar    1  UNL1        0.0060
     17 C          62.8763   82.2905   14.4511 C.ar    1  UNL1        0.0006
     18 C          62.7817   83.4290   15.4232 C.ar    1  UNL1        0.0045
     19 C          62.9091   81.4178   12.0042 C.ar    1  UNL1        0.0295
     20 C          63.4004   81.5045   10.5896 C.ar    1  UNL1        0.0070
     21 C          63.3240   80.1328    9.9875 C.ar    1  UNL1        0.0075
     22 C          62.7854   79.1984   11.0299 C.ar    1  UNL1        0.0354
     23 S          62.5289   79.9925   12.2763 S.2     1  UNL1       -0.0864
     24 C          65.8679   91.9020   13.8114 C.ar    1  UNL1        0.1241
     25 C          67.3282   91.6636   13.5654 C.ar    1  UNL1        0.0591
     26 S          67.7314   92.4607   12.3603 S.2     1  UNL1       -0.0658
     27 C          66.5203   93.1917   11.8616 C.ar    1  UNL1        0.1130
     28 N          65.3685   92.8464   12.7584 N.ar    1  UNL1       -0.2352
     29 C          66.4697   94.1072   10.6745 C.ar    1  UNL1        0.0514
     30 C          65.7381   95.4137   10.7656 C.ar    1  UNL1        0.0066
     31 C          65.6876   96.3292    9.5785 C.ar    1  UNL1        0.0298
     32 C          66.3686   95.9384    8.3003 C.ar    1  UNL1        0.1424
     33 F          66.3181   96.8539    7.1132 F       1  UNL1       -0.2041
     34 C          67.1001   94.6320    8.2093 C.ar    1  UNL1        0.0593
     35 C          67.1506   93.7165    9.3964 C.ar    1  UNL1        0.1443
     36 F          67.8822   92.4101    9.3054 F       1  UNL1       -0.2040
@<TRIPOS>BOND
     1     2     1    1
     2     2     3    1
     3     3     4   ar
     4     4     5   ar
     5     5     6   ar
     6     6    24    1
     7    24    25   ar
     8    25    26   ar
     9    26    27   ar
    10    27    29    1
    11    29    30   ar
    12    30    31   ar
    13    31    32   ar
    14    32    33    1
    15    32    34   ar
    16    34    35   ar
    17    35    36    1
    18    27    28   ar
    19     6     7   ar
    20     7     8    1
    21     8     9    1
    22     9    10    1
    23    10    11   am
    24    11    12    2
    25    11    13    1
    26    13    14   ar
    27    14    15   ar
    28    15    16   ar
    29    16    19    1
    30    19    20   ar
    31    20    21   ar
    32    21    22   ar
    33    22    23   ar
    34    16    17   ar
    35    17    18   ar
    36    10     2    1
    37    18    13   ar
    38     7     3   ar
    39    23    19   ar
    40    28    24   ar
    41    35    29   ar
@<TRIPOS>MOLECULE
*****
 36 41 0 0 0
SMALL
GASTEIGER

@<TRIPOS>ATOM
      1 C          63.2356   89.1307   17.4313 C.3     1  UNL1        0.0298
      2 C          63.4516   88.5779   16.0536 C.3     1  UNL1        0.1343
      3 C          63.1159   87.1460   15.7588 C.ar    1  UNL1        0.1615
      4 N          62.5618   86.0478   16.6172 N.ar    1  UNL1       -0.1316
      5 N          62.4353   84.8164   15.7701 N.ar    1  UNL1       -0.1274
      6 C          62.9113   85.1535   14.3881 C.ar    1  UNL1        0.1846
      7 N          63.3319   86.5934   14.3812 N.ar    1  UNL1       -0.2944
      8 C          63.8837   87.4726   13.2984 C.3     1  UNL1        0.1302
      9 C          64.2194   88.9045   13.5932 C.3     1  UNL1        0.1186
     10 N          64.0034   89.4571   14.9707 N.am    1  UNL1       -0.2688
     11 C          64.3392   90.8891   15.2656 C.2     1  UNL1        0.2493
     12 O          64.1231   91.4418   16.6432 O.2     1  UNL1       -0.2699
     13 C          64.8910   91.7683   14.1828 C.ar    1  UNL1        0.0536
     14 C          65.9571   92.7735   14.5034 C.ar    1  UNL1        0.0045
     15 C          66.5089   93.6528   13.4205 C.ar    1  UNL1        0.0006
     16 C          65.9946   93.5268   12.0172 C.ar    1  UNL1        0.0060
     17 C          64.9283   92.5215   11.6966 C.ar    1  UNL1        0.0006
     18 C          64.3765   91.6423   12.7794 C.ar    1  UNL1        0.0045
     19 C          66.5463   94.4059   10.9343 C.ar    1  UNL1        0.0295
     20 C          67.3152   93.9461    9.7313 C.ar    1  UNL1        0.0070
     21 C          67.6700   95.1554    8.9178 C.ar    1  UNL1        0.0075
     22 C          67.1203   96.3626    9.6181 C.ar    1  UNL1        0.0354
     23 S          66.4258   95.8995   10.8643 S.2     1  UNL1       -0.0864
     24 C          62.9584   84.2156   13.2186 C.ar    1  UNL1        0.1241
     25 C          63.1391   84.6063   11.7817 C.ar    1  UNL1        0.0591
     26 S          63.1255   83.3543   10.9556 S.2     1  UNL1       -0.0658
     27 C          62.9363   82.1898   11.8819 C.ar    1  UNL1        0.1130
     28 N          62.8331   82.7221   13.2805 N.ar    1  UNL1       -0.2352
     29 C          62.8632   80.7464   11.4802 C.ar    1  UNL1        0.0514
     30 C          63.0188   80.3602   10.0391 C.ar    1  UNL1        0.0066
     31 C          62.9457   78.9169    9.6374 C.ar    1  UNL1        0.0298
     32 C          62.7171   77.8597   10.6768 C.ar    1  UNL1        0.1424
     33 F          62.6440   76.4164   10.2751 F       1  UNL1       -0.2041
     34 C          62.5616   78.2460   12.1178 C.ar    1  UNL1        0.0593
     35 C          62.6346   79.6893   12.5195 C.ar    1  UNL1        0.1443
     36 F          62.4791   80.0755   13.9606 F       1  UNL1       -0.2040
@<TRIPOS>BOND
     1     2     1    1
     2     2     3    1
     3     3     4   ar
     4     4     5   ar
     5     5     6   ar
     6     6    24    1
     7    24    25   ar
     8    25    26   ar
     9    26    27   ar
    10    27    29    1
    11    29    30   ar
    12    30    31   ar
    13    31    32   ar
    14    32    33    1
    15    32    34   ar
    16    34    35   ar
    17    35    36    1
    18    27    28   ar
    19     6     7   ar
    20     7     8    1
    21     8     9    1
    22     9    10    1
    23    10    11   am
    24    11    12    2
    25    11    13    1
    26    13    14   ar
    27    14    15   ar
    28    15    16   ar
    29    16    19    1
    30    19    20   ar
    31    20    21   ar
    32    21    22   ar
    33    22    23   ar
    34    16    17   ar
    35    17    18   ar
    36    10     2    1
    37    18    13   ar
    38     7     3   ar
    39    23    19   ar
    40    28    24   ar
    41    35    29   ar
