@<TRIPOS>MOLECULE
*****
 17 18 0 0 0
SMALL
GASTEIGER

@<TRIPOS>ATOM
      1 C          62.6452   84.8193   10.8961 C.2     1  UNL1        0.0436
      2 C          62.5195   85.3766    9.5092 C.2     1  UNL1        0.0056
      3 C          61.7530   86.6449    9.2771 C.ar    1  UNL1        0.0276
      4 C          62.1580   87.9057    9.9817 C.ar    1  UNL1        0.0022
      5 C          61.3914   89.1739    9.7496 C.ar    1  UNL1        0.0001
      6 C          60.2198   89.1814    8.8130 C.ar    1  UNL1        0.0023
      7 C          59.8148   87.9207    8.1084 C.ar    1  UNL1        0.0296
      8 C          60.5814   86.6524    8.3405 C.ar    1  UNL1        0.1401
      9 F          60.1763   85.3916    7.6359 F       1  UNL1       -0.2042
     10 O          64.6505   83.2669   10.3314 O.2     1  UNL1       -0.2850
     11 C          63.4118   83.5509   11.1281 C.2     1  UNL1        0.2111
     12 C          62.9396   82.5667   12.1568 C.ar    1  UNL1        0.0961
     13 C          62.8688   81.0782   11.9858 C.ar    1  UNL1        0.0218
     14 C          62.3407   80.4897   13.2604 C.ar    1  UNL1        0.0200
     15 C          62.0851   81.6146   14.2193 C.ar    1  UNL1        0.0725
     16 N          62.4552   82.8982   13.5372 N.ar    1  UNL1       -0.3495
     17 H          62.3914   83.8000   13.9271 H       1  UNL1        0.1661
@<TRIPOS>BOND
     1    10    11    2
     2    11     1    1
     3     1     2    2
     4     2     3    1
     5     3     4   ar
     6     4     5   ar
     7     5     6   ar
     8     6     7   ar
     9     7     8   ar
    10     8     9    1
    11    11    12    1
    12    12    13   ar
    13    13    14   ar
    14    14    15   ar
    15    15    16   ar
    16     8     3   ar
    17    16    12   ar
    18    16    17    1
@<TRIPOS>MOLECULE
*****
 17 18 0 0 0
SMALL
GASTEIGER

@<TRIPOS>ATOM
      1 C          63.0591   84.4653   10.3386 C.2     1  UNL1        0.0436
      2 C          62.2545   85.4966   11.0727 C.2     1  UNL1        0.0056
      3 C          61.6379   86.6402   10.3228 C.ar    1  UNL1        0.0276
      4 C          60.6316   86.3733    9.2429 C.ar    1  UNL1        0.0022
      5 C          60.0151   87.5168    8.4931 C.ar    1  UNL1        0.0001
      6 C          60.4049   88.9271    8.8232 C.ar    1  UNL1        0.0023
      7 C          61.4111   89.1940    9.9030 C.ar    1  UNL1        0.0296
      8 C          62.0276   88.0505   10.6529 C.ar    1  UNL1        0.1401
      9 F          63.0339   88.3174   11.7328 F       1  UNL1       -0.2042
     10 O          64.8989   82.6427   10.5475 O.2     1  UNL1       -0.2850
     11 C          63.6757   83.3218   11.0885 C.2     1  UNL1        0.2111
     12 C          63.0691   82.8573   12.3793 C.ar    1  UNL1        0.0961
     13 C          62.2958   81.5885   12.5839 C.ar    1  UNL1        0.0218
     14 C          61.8780   81.5271   14.0232 C.ar    1  UNL1        0.0200
     15 C          62.3932   82.7582   14.7083 C.ar    1  UNL1        0.0725
     16 N          63.1293   83.5803   13.6923 N.ar    1  UNL1       -0.3495
     17 H          63.5739   84.4429   13.8580 H       1  UNL1        0.1661
@<TRIPOS>BOND
     1    10    11    2
     2    11     1    1
     3     1     2    2
     4     2     3    1
     5     3     4   ar
     6     4     5   ar
     7     5     6   ar
     8     6     7   ar
     9     7     8   ar
    10     8     9    1
    11    11    12    1
    12    12    13   ar
    13    13    14   ar
    14    14    15   ar
    15    15    16   ar
    16     8     3   ar
    17    16    12   ar
    18    16    17    1
@<TRIPOS>MOLECULE
*****
 17 18 0 0 0
SMALL
GASTEIGER

@<TRIPOS>ATOM
      1 C          65.2675   92.3427   11.6608 C.2     1  UNL1        0.0436
      2 C          64.3871   91.4159   12.4457 C.2     1  UNL1        0.0056
      3 C          63.4535   90.4840   11.7314 C.ar    1  UNL1        0.0276
      4 C          62.6919   90.9604   10.5302 C.ar    1  UNL1        0.0022
      5 C          61.7583   90.0285    9.8161 C.ar    1  UNL1        0.0001
      6 C          61.5864   88.6203   10.3032 C.ar    1  UNL1        0.0023
      7 C          62.3479   88.1439   11.5044 C.ar    1  UNL1        0.0296
      8 C          63.2815   89.0758   12.2186 C.ar    1  UNL1        0.1401
      9 F          64.0431   88.5995   13.4199 F       1  UNL1       -0.2042
     10 O          66.6025   94.5703   11.7348 O.2     1  UNL1       -0.2850
     11 C          66.2011   93.2746   12.3750 C.2     1  UNL1        0.2111
     12 C          66.7332   92.9107   13.7294 C.ar    1  UNL1        0.0961
     13 C          67.8327   91.9298   14.0103 C.ar    1  UNL1        0.0218
     14 C          68.0383   91.8767   15.4952 C.ar    1  UNL1        0.0200
     15 C          67.0659   92.8248   16.1320 C.ar    1  UNL1        0.0725
     16 N          66.2593   93.4638   15.0407 N.ar    1  UNL1       -0.3495
     17 H          65.5444   94.1295   15.1635 H       1  UNL1        0.1661
@<TRIPOS>BOND
     1    10    11    2
     2    11     1    1
     3     1     2    2
     4     2     3    1
     5     3     4   ar
     6     4     5   ar
     7     5     6   ar
     8     6     7   ar
     9     7     8   ar
    10     8     9    1
    11    11    12    1
    12    12    13   ar
    13    13    14   ar
    14    14    15   ar
    15    15    16   ar
    16     8     3   ar
    17    16    12   ar
    18    16    17    1
@<TRIPOS>MOLECULE
*****
 17 18 0 0 0
SMALL
GASTEIGER

@<TRIPOS>ATOM
      1 C          60.9309   86.0473    9.5411 C.2     1  UNL1        0.0436
      2 C          61.9816   86.1103   10.6097 C.2     1  UNL1        0.0056
      3 C          62.7674   84.8822   10.9624 C.ar    1  UNL1        0.0276
      4 C          62.8341   84.4179   12.3871 C.ar    1  UNL1        0.0022
      5 C          63.6198   83.1899   12.7397 C.ar    1  UNL1        0.0001
      6 C          64.3388   82.4260   11.6676 C.ar    1  UNL1        0.0023
      7 C          64.2721   82.8902   10.2428 C.ar    1  UNL1        0.0296
      8 C          63.4864   84.1183    9.8902 C.ar    1  UNL1        0.1401
      9 F          63.4196   84.5826    8.4654 F       1  UNL1       -0.2042
     10 O          59.5247   87.4040    7.8288 O.2     1  UNL1       -0.2850
     11 C          60.1451   87.2754    9.1884 C.2     1  UNL1        0.2111
     12 C          59.9799   88.3748   10.1953 C.ar    1  UNL1        0.0961
     13 C          60.1947   89.8383    9.9460 C.ar    1  UNL1        0.0218
     14 C          59.9183   90.5718   11.2249 C.ar    1  UNL1        0.0200
     15 C          59.5328   89.5617   12.2646 C.ar    1  UNL1        0.0725
     16 N          59.5708   88.2039   11.6283 N.ar    1  UNL1       -0.3495
     17 H          59.3636   87.3504   12.0731 H       1  UNL1        0.1661
@<TRIPOS>BOND
     1    10    11    2
     2    11     1    1
     3     1     2    2
     4     2     3    1
     5     3     4   ar
     6     4     5   ar
     7     5     6   ar
     8     6     7   ar
     9     7     8   ar
    10     8     9    1
    11    11    12    1
    12    12    13   ar
    13    13    14   ar
    14    14    15   ar
    15    15    16   ar
    16     8     3   ar
    17    16    12   ar
    18    16    17    1
@<TRIPOS>MOLECULE
*****
 17 18 0 0 0
SMALL
GASTEIGER

@<TRIPOS>ATOM
      1 C          62.1930   87.0690   10.9573 C.2     1  UNL1        0.0436
      2 C          61.6846   85.6874   11.2444 C.2     1  UNL1        0.0056
      3 C          62.6524   84.5619   11.4604 C.ar    1  UNL1        0.0276
      4 C          62.8215   83.9702   12.8284 C.ar    1  UNL1        0.0022
      5 C          63.7893   82.8448   13.0443 C.ar    1  UNL1        0.0001
      6 C          64.5880   82.3110   11.8923 C.ar    1  UNL1        0.0023
      7 C          64.4189   82.9026   10.5244 C.ar    1  UNL1        0.0296
      8 C          63.4511   84.0280   10.3084 C.ar    1  UNL1        0.1401
      9 F          63.2820   84.6198    8.9404 F       1  UNL1       -0.2042
     10 O          61.0098   89.2157   11.8187 O.2     1  UNL1       -0.2850
     11 C          61.2252   88.1945   10.7412 C.2     1  UNL1        0.2111
     12 C          60.4728   88.2989    9.4478 C.ar    1  UNL1        0.0961
     13 C          59.7324   87.1866    8.7663 C.ar    1  UNL1        0.0218
     14 C          59.1307   87.7341    7.5061 C.ar    1  UNL1        0.0200
     15 C          59.4993   89.1849    7.4087 C.ar    1  UNL1        0.0725
     16 N          60.3287   89.5339    8.6088 N.ar    1  UNL1       -0.3495
     17 H          60.7114   90.4183    8.8103 H       1  UNL1        0.1661
@<TRIPOS>BOND
     1    10    11    2
     2    11     1    1
     3     1     2    2
     4     2     3    1
     5     3     4   ar
     6     4     5   ar
     7     5     6   ar
     8     6     7   ar
     9     7     8   ar
    10     8     9    1
    11    11    12    1
    12    12    13   ar
    13    13    14   ar
    14    14    15   ar
    15    15    16   ar
    16     8     3   ar
    17    16    12   ar
    18    16    17    1
@<TRIPOS>MOLECULE
*****
 17 18 0 0 0
SMALL
GASTEIGER

@<TRIPOS>ATOM
      1 C          63.3504   84.8485   14.3470 C.2     1  UNL1        0.0436
      2 C          64.2970   85.6586   15.1822 C.2     1  UNL1        0.0056
      3 C          64.0191   87.1106   15.4360 C.ar    1  UNL1        0.0276
      4 C          64.4511   88.1427   14.4370 C.ar    1  UNL1        0.0022
      5 C          64.1731   89.5947   14.6908 C.ar    1  UNL1        0.0001
      6 C          63.4631   90.0146   15.9436 C.ar    1  UNL1        0.0023
      7 C          63.0310   88.9825   16.9427 C.ar    1  UNL1        0.0296
      8 C          63.3090   87.5305   16.6889 C.ar    1  UNL1        0.1401
      9 F          62.8770   86.4983   17.6879 F       1  UNL1       -0.2042
     10 O          63.8290   82.4585   15.2465 O.2     1  UNL1       -0.2850
     11 C          63.6284   83.3965   14.0932 C.2     1  UNL1        0.2111
     12 C          63.7058   82.8824   12.6862 C.ar    1  UNL1        0.0961
     13 C          62.8501   81.8022   12.0939 C.ar    1  UNL1        0.0218
     14 C          63.2678   81.6104   10.6661 C.ar    1  UNL1        0.0200
     15 C          64.3818   82.5722   10.3759 C.ar    1  UNL1        0.0725
     16 N          64.6524   83.3583   11.6244 N.ar    1  UNL1       -0.3495
     17 H          65.3320   84.0630   11.7287 H       1  UNL1        0.1661
@<TRIPOS>BOND
     1    10    11    2
     2    11     1    1
     3     1     2    2
     4     2     3    1
     5     3     4   ar
     6     4     5   ar
     7     5     6   ar
     8     6     7   ar
     9     7     8   ar
    10     8     9    1
    11    11    12    1
    12    12    13   ar
    13    13    14   ar
    14    14    15   ar
    15    15    16   ar
    16     8     3   ar
    17    16    12   ar
    18    16    17    1
@<TRIPOS>MOLECULE
*****
 17 18 0 0 0
SMALL
GASTEIGER

@<TRIPOS>ATOM
      1 C          61.7645   85.8256   11.5061 C.2     1  UNL1        0.0436
      2 C          62.0522   86.0560   10.0522 C.2     1  UNL1        0.0056
      3 C          61.0954   86.8527    9.2154 C.ar    1  UNL1        0.0276
      4 C          60.1610   86.1531    8.2734 C.ar    1  UNL1        0.0022
      5 C          59.2043   86.9497    7.4367 C.ar    1  UNL1        0.0001
      6 C          59.1820   88.4459    7.5420 C.ar    1  UNL1        0.0023
      7 C          60.1165   89.1454    8.4840 C.ar    1  UNL1        0.0296
      8 C          61.0731   88.3488    9.3207 C.ar    1  UNL1        0.1401
      9 F          62.0077   89.0483   10.2628 F       1  UNL1       -0.2042
     10 O          63.4875   85.6962   13.4464 O.2     1  UNL1       -0.2850
     11 C          62.7213   85.0290   12.3429 C.2     1  UNL1        0.2111
     12 C          62.9118   83.5653   12.0762 C.ar    1  UNL1        0.0961
     13 C          63.5898   82.9682   10.8787 C.ar    1  UNL1        0.0218
     14 C          63.5547   81.4756   11.0225 C.ar    1  UNL1        0.0200
     15 C          62.8550   81.1500   12.3088 C.ar    1  UNL1        0.0725
     16 N          62.4577   82.4416   12.9600 N.ar    1  UNL1       -0.3495
     17 H          61.9823   82.5353   13.8170 H       1  UNL1        0.1661
@<TRIPOS>BOND
     1    10    11    2
     2    11     1    1
     3     1     2    2
     4     2     3    1
     5     3     4   ar
     6     4     5   ar
     7     5     6   ar
     8     6     7   ar
     9     7     8   ar
    10     8     9    1
    11    11    12    1
    12    12    13   ar
    13    13    14   ar
    14    14    15   ar
    15    15    16   ar
    16     8     3   ar
    17    16    12   ar
    18    16    17    1
@<TRIPOS>MOLECULE
*****
 17 18 0 0 0
SMALL
GASTEIGER

@<TRIPOS>ATOM
      1 C          63.8294   84.9097   13.5268 C.2     1  UNL1        0.0436
      2 C          62.5730   84.7704   12.7193 C.2     1  UNL1        0.0056
      3 C          62.6026   85.0104   11.2388 C.ar    1  UNL1        0.0276
      4 C          61.8010   86.1303   10.6444 C.ar    1  UNL1        0.0022
      5 C          61.8306   86.3702    9.1641 C.ar    1  UNL1        0.0001
      6 C          62.6617   85.4903    8.2781 C.ar    1  UNL1        0.0023
      7 C          63.4632   84.3704    8.8725 C.ar    1  UNL1        0.0296
      8 C          63.4337   84.1304   10.3528 C.ar    1  UNL1        0.1401
      9 F          64.2352   83.0105   10.9473 F       1  UNL1       -0.2042
     10 O          64.1278   83.3118   15.5536 O.2     1  UNL1       -0.2850
     11 C          63.7998   84.6697   15.0073 C.2     1  UNL1        0.2111
     12 C          63.4424   85.7876   15.9413 C.ar    1  UNL1        0.0961
     13 C          62.7846   85.6406   17.2813 C.ar    1  UNL1        0.0218
     14 C          62.6157   87.0110   17.8675 C.ar    1  UNL1        0.0200
     15 C          63.1690   88.0049   16.8898 C.ar    1  UNL1        0.0725
     16 N          63.6800   87.2488   15.6993 N.ar    1  UNL1       -0.3495
     17 H          64.0979   87.6424   14.8995 H       1  UNL1        0.1661
@<TRIPOS>BOND
     1    10    11    2
     2    11     1    1
     3     1     2    2
     4     2     3    1
     5     3     4   ar
     6     4     5   ar
     7     5     6   ar
     8     6     7   ar
     9     7     8   ar
    10     8     9    1
    11    11    12    1
    12    12    13   ar
    13    13    14   ar
    14    14    15   ar
    15    15    16   ar
    16     8     3   ar
    17    16    12   ar
    18    16    17    1
@<TRIPOS>MOLECULE
*****
 17 18 0 0 0
SMALL
GASTEIGER

@<TRIPOS>ATOM
      1 C          62.0005   85.6151   11.4811 C.2     1  UNL1        0.0436
      2 C          62.1875   85.8265   10.0079 C.2     1  UNL1        0.0056
      3 C          61.2264   86.6903    9.2462 C.ar    1  UNL1        0.0276
      4 C          60.2406   86.0652    8.3041 C.ar    1  UNL1        0.0022
      5 C          59.2796   86.9290    7.5424 C.ar    1  UNL1        0.0001
      6 C          59.3043   88.4179    7.7229 C.ar    1  UNL1        0.0023
      7 C          60.2900   89.0430    8.6650 C.ar    1  UNL1        0.0296
      8 C          61.2510   88.1792    9.4266 C.ar    1  UNL1        0.1401
      9 F          62.2368   88.8043   10.3688 F       1  UNL1       -0.2042
     10 O          63.7742   83.7171   11.5216 O.2     1  UNL1       -0.2850
     11 C          62.9617   84.7513   12.2428 C.2     1  UNL1        0.2111
     12 C          63.1102   84.9217   13.7256 C.ar    1  UNL1        0.0961
     13 C          64.2549   85.5921   14.4258 C.ar    1  UNL1        0.0218
     14 C          63.9922   85.5364   15.9016 C.ar    1  UNL1        0.0200
     15 C          62.6852   84.8315   16.1135 C.ar    1  UNL1        0.0725
     16 N          62.1401   84.4516   14.7687 N.ar    1  UNL1       -0.3495
     17 H          61.2941   83.9771   14.6002 H       1  UNL1        0.1661
@<TRIPOS>BOND
     1    10    11    2
     2    11     1    1
     3     1     2    2
     4     2     3    1
     5     3     4   ar
     6     4     5   ar
     7     5     6   ar
     8     6     7   ar
     9     7     8   ar
    10     8     9    1
    11    11    12    1
    12    12    13   ar
    13    13    14   ar
    14    14    15   ar
    15    15    16   ar
    16     8     3   ar
    17    16    12   ar
    18    16    17    1
