@<TRIPOS>MOLECULE
*****
 34 38 0 0 0
SMALL
GASTEIGER

@<TRIPOS>ATOM
      1 C          63.4211   88.2519   13.1664 C.3     1  UNL1        0.1095
      2 C          64.2535   87.8692   14.3540 C.3     1  UNL1        0.1597
      3 O          64.5312   86.4232   14.6408 O.3     1  UNL1       -0.3533
      4 C          63.9763   85.3600   13.7398 C.3     1  UNL1        0.1315
      5 C          64.0814   83.8640   13.7695 C.3     1  UNL1        0.0311
      6 C          63.3138   83.3222   12.6002 C.3     1  UNL1        0.0041
      7 C          62.7344   84.4833   11.8478 C.3     1  UNL1        0.0203
      8 C          63.1439   85.7428   12.5521 C.3     1  UNL1        0.1066
      9 N          62.8662   87.1887   12.2655 N.3     1  UNL1       -0.1534
     10 C          63.1434   89.6979   12.8797 C.3     1  UNL1        0.0261
     11 C          62.3822   90.9763   12.6900 C.3     1  UNL1        0.0020
     12 C          61.6543   89.7178   13.0595 C.3     1  UNL1        0.0020
     13 C          64.5361   90.1801   12.6004 C.3     1  UNL1        0.0867
     14 O          65.0376   91.5946   14.7211 O.2     1  UNL1       -0.2749
     15 C          65.0302   91.4496   13.2281 C.2     1  UNL1        0.2257
     16 N          65.5171   92.5741   12.3630 N.am    1  UNL1       -0.2795
     17 C          66.0112   93.8436   12.9908 C.3     1  UNL1        0.0935
     18 C          66.4981   94.9681   12.1256 C.3     1  UNL1        0.0240
     19 C          66.4907   94.8230   10.6326 C.3     1  UNL1        0.0327
     20 C          65.9965   93.5536   10.0048 C.3     1  UNL1        0.0240
     21 C          65.5097   92.4290   10.8700 C.3     1  UNL1        0.0935
     22 C          66.9775   95.9476    9.7675 C.3     1  UNL1        0.1372
     23 O          67.9908   95.6832    8.6935 O.3     1  UNL1       -0.3820
     24 H          68.8301   95.4158    9.0996 H       1  UNL1        0.2104
     25 S          62.0337   87.5715   11.0778 S.O2    1  UNL1        0.0634
     26 O          60.8148   87.0169   11.7536 O.2     1  UNL1       -0.1528
     27 O          62.9169   88.1390   10.2291 O.2     1  UNL1       -0.1528
     28 C          61.2012   87.9542    9.8902 C.ar    1  UNL1        0.1223
     29 C          61.0098   89.4009    9.5434 C.ar    1  UNL1        0.0208
     30 C          60.1772   89.7837    8.3558 C.ar    1  UNL1        0.0128
     31 C          59.5361   88.7198    7.5151 C.ar    1  UNL1        0.0578
     32 CL         58.7036   89.1026    6.3275 Cl      1  UNL1       -0.0822
     33 C          59.7275   87.2730    7.8619 C.ar    1  UNL1        0.0128
     34 C          60.5600   86.8902    9.0495 C.ar    1  UNL1        0.0208
@<TRIPOS>BOND
     1    14    15    2
     2    15    13    1
     3    13    10    1
     4     1    10    1
     5     1     2    1
     6     2     3    1
     7     3     4    1
     8     4     5    1
     9     5     6    1
    10     6     7    1
    11     8     7    1
    12     8     9    1
    13     9    25    1
    14    25    26    2
    15    25    27    2
    16    25    28    1
    17    28    29   ar
    18    29    30   ar
    19    30    31   ar
    20    31    32    1
    21    31    33   ar
    22    33    34   ar
    23    10    11    1
    24    11    12    1
    25    15    16   am
    26    16    17    1
    27    17    18    1
    28    18    19    1
    29    19    22    1
    30    22    23    1
    31    19    20    1
    32    20    21    1
    33    12    10    1
    34    21    16    1
    35     9     1    1
    36    34    28   ar
    37     8     4    1
    38    23    24    1
@<TRIPOS>MOLECULE
*****
 34 38 0 0 0
SMALL
GASTEIGER

@<TRIPOS>ATOM
      1 C          63.0594   90.4406   11.4684 C.3     1  UNL1        0.1095
      2 C          63.2560   91.2927   10.2498 C.3     1  UNL1        0.1597
      3 O          64.3115   92.3585   10.2422 O.3     1  UNL1       -0.3533
      4 C          65.1704   92.5720   11.4533 C.3     1  UNL1        0.1315
      5 C          66.2823   93.5378   11.7376 C.3     1  UNL1        0.0311
      6 C          66.7729   93.2825   13.1319 C.3     1  UNL1        0.0041
      7 C          65.9641   92.1589   13.7094 C.3     1  UNL1        0.0203
      8 C          64.9737   91.7198   12.6719 C.3     1  UNL1        0.1066
      9 N          63.9182   90.6541   12.6795 N.3     1  UNL1       -0.1534
     10 C          62.0038   89.3748   11.4760 C.3     1  UNL1        0.0261
     11 C          60.6484   88.7332   11.4462 C.3     1  UNL1        0.0020
     12 C          60.7733   90.2261   11.3712 C.3     1  UNL1        0.0020
     13 C          62.8678   88.1533   11.5834 C.3     1  UNL1        0.0867
     14 O          62.0346   87.0387    9.3894 O.2     1  UNL1       -0.2749
     15 C          62.5231   86.9198   10.8027 C.2     1  UNL1        0.2257
     16 N          62.6670   85.5672   11.4352 N.am    1  UNL1       -0.2795
     17 C          62.3222   84.3337   10.6544 C.3     1  UNL1        0.0935
     18 C          62.4661   82.9812   11.2869 C.3     1  UNL1        0.0240
     19 C          62.9546   82.8622   12.7002 C.3     1  UNL1        0.0327
     20 C          63.2993   84.0957   13.4809 C.3     1  UNL1        0.0240
     21 C          63.1555   85.4483   12.8484 C.3     1  UNL1        0.0935
     22 C          63.0984   81.5097   13.3326 C.3     1  UNL1        0.1372
     23 O          62.4392   81.2234   14.6491 O.3     1  UNL1       -0.3820
     24 H          62.8459   81.7696   15.3399 H       1  UNL1        0.2104
     25 S          63.7216   89.8018   13.8981 S.O2    1  UNL1        0.0634
     26 O          62.7981   90.8353   14.4718 O.2     1  UNL1       -0.1528
     27 O          64.4851   88.7138   13.6625 O.2     1  UNL1       -0.1528
     28 C          63.5248   88.9496   15.1168 C.ar    1  UNL1        0.1223
     29 C          63.0395   89.5683   16.3941 C.ar    1  UNL1        0.0208
     30 C          62.8428   88.7162   17.6128 C.ar    1  UNL1        0.0128
     31 C          63.1313   87.2455   17.5541 C.ar    1  UNL1        0.0578
     32 CL         62.9346   86.3934   18.7728 Cl      1  UNL1       -0.0822
     33 C          63.6166   86.6268   16.2767 C.ar    1  UNL1        0.0128
     34 C          63.8134   87.4789   15.0580 C.ar    1  UNL1        0.0208
@<TRIPOS>BOND
     1    14    15    2
     2    15    13    1
     3    13    10    1
     4     1    10    1
     5     1     2    1
     6     2     3    1
     7     3     4    1
     8     4     5    1
     9     5     6    1
    10     6     7    1
    11     8     7    1
    12     8     9    1
    13     9    25    1
    14    25    26    2
    15    25    27    2
    16    25    28    1
    17    28    29   ar
    18    29    30   ar
    19    30    31   ar
    20    31    32    1
    21    31    33   ar
    22    33    34   ar
    23    10    11    1
    24    11    12    1
    25    15    16   am
    26    16    17    1
    27    17    18    1
    28    18    19    1
    29    19    22    1
    30    22    23    1
    31    19    20    1
    32    20    21    1
    33    12    10    1
    34    21    16    1
    35     9     1    1
    36    34    28   ar
    37     8     4    1
    38    23    24    1
@<TRIPOS>MOLECULE
*****
 34 38 0 0 0
SMALL
GASTEIGER

@<TRIPOS>ATOM
      1 C          61.1803   89.3769   10.8717 C.3     1  UNL1        0.1095
      2 C          60.4838   90.5233   10.2004 C.3     1  UNL1        0.1597
      3 O          59.7065   90.2933    8.9382 O.3     1  UNL1       -0.3533
      4 C          59.6256   88.9169    8.3475 C.3     1  UNL1        0.1315
      5 C          58.9391   88.3891    7.1227 C.3     1  UNL1        0.0311
      6 C          59.2114   86.9165    7.0371 C.3     1  UNL1        0.0041
      7 C          60.0661   86.5342    8.2090 C.3     1  UNL1        0.0203
      8 C          60.3221   87.7705    9.0189 C.3     1  UNL1        0.1066
      9 N          61.0994   88.0005   10.2810 N.3     1  UNL1       -0.1534
     10 C          61.9576   89.6069   12.1338 C.3     1  UNL1        0.0261
     11 C          62.2556   89.7853   13.5930 C.3     1  UNL1        0.0020
     12 C          60.8472   89.5382   13.1399 C.3     1  UNL1        0.0020
     13 C          63.3381   89.7555   11.5660 C.3     1  UNL1        0.0867
     14 O          63.5484   91.9140   10.1354 O.2     1  UNL1       -0.2749
     15 C          63.9189   91.1221   11.3543 C.2     1  UNL1        0.2257
     16 N          64.8702   91.6970   12.3615 N.am    1  UNL1       -0.2795
     17 C          65.4510   93.0637   12.1498 C.3     1  UNL1        0.0935
     18 C          66.4024   93.6386   13.1570 C.3     1  UNL1        0.0240
     19 C          66.7729   92.8468   14.3760 C.3     1  UNL1        0.0327
     20 C          66.1921   91.4801   14.5877 C.3     1  UNL1        0.0240
     21 C          65.2407   90.9052   13.5805 C.3     1  UNL1        0.0935
     22 C          67.7242   93.4218   15.3831 C.3     1  UNL1        0.1372
     23 O          69.2026   93.3656   15.1358 O.3     1  UNL1       -0.3820
     24 H          69.4968   92.4413   15.1438 H       1  UNL1        0.2104
     25 S          61.7959   86.8541   10.9524 S.O2    1  UNL1        0.0634
     26 O          62.9121   86.9480    9.9547 O.2     1  UNL1       -0.1528
     27 O          60.9729   86.5225   11.9698 O.2     1  UNL1       -0.1528
     28 C          62.4924   85.7077   11.6237 C.ar    1  UNL1        0.1223
     29 C          62.4643   84.3440   10.9997 C.ar    1  UNL1        0.0208
     30 C          63.1608   83.1975   11.6710 C.ar    1  UNL1        0.0128
     31 C          63.8855   83.4150   12.9662 C.ar    1  UNL1        0.0578
     32 CL         64.5820   82.2685   13.6374 Cl      1  UNL1       -0.0822
     33 C          63.9136   84.7787   13.5902 C.ar    1  UNL1        0.0128
     34 C          63.2171   85.9251   12.9189 C.ar    1  UNL1        0.0208
@<TRIPOS>BOND
     1    14    15    2
     2    15    13    1
     3    13    10    1
     4     1    10    1
     5     1     2    1
     6     2     3    1
     7     3     4    1
     8     4     5    1
     9     5     6    1
    10     6     7    1
    11     8     7    1
    12     8     9    1
    13     9    25    1
    14    25    26    2
    15    25    27    2
    16    25    28    1
    17    28    29   ar
    18    29    30   ar
    19    30    31   ar
    20    31    32    1
    21    31    33   ar
    22    33    34   ar
    23    10    11    1
    24    11    12    1
    25    15    16   am
    26    16    17    1
    27    17    18    1
    28    18    19    1
    29    19    22    1
    30    22    23    1
    31    19    20    1
    32    20    21    1
    33    12    10    1
    34    21    16    1
    35     9     1    1
    36    34    28   ar
    37     8     4    1
    38    23    24    1
@<TRIPOS>MOLECULE
*****
 34 38 0 0 0
SMALL
GASTEIGER

@<TRIPOS>ATOM
      1 C          63.2191   88.1364   12.8917 C.3     1  UNL1        0.1095
      2 C          64.0640   87.7186   14.0584 C.3     1  UNL1        0.1597
      3 O          64.3446   86.2647   14.2989 O.3     1  UNL1       -0.3533
      4 C          63.7800   85.2288   13.3725 C.3     1  UNL1        0.1315
      5 C          63.8852   83.7326   13.3565 C.3     1  UNL1        0.0311
      6 C          63.1052   83.2258   12.1798 C.3     1  UNL1        0.0041
      7 C          62.5179   84.4087   11.4686 C.3     1  UNL1        0.0203
      8 C          62.9350   85.6467   12.2057 C.3     1  UNL1        0.1066
      9 N          62.6545   87.1005   11.9653 N.3     1  UNL1       -0.1534
     10 C          62.9385   89.5902   12.6512 C.3     1  UNL1        0.0261
     11 C          62.2448   90.9191   12.7022 C.3     1  UNL1        0.0020
     12 C          61.6511   89.7356   13.4070 C.3     1  UNL1        0.0020
     13 C          64.1286   89.9497   11.8118 C.3     1  UNL1        0.0867
     14 O          64.1656   92.2150   10.5402 O.2     1  UNL1       -0.2749
     15 C          64.5748   91.3786   11.7162 C.2     1  UNL1        0.2257
     16 N          65.4303   91.9712   12.7965 N.am    1  UNL1       -0.2795
     17 C          65.8765   93.4000   12.7009 C.3     1  UNL1        0.0935
     18 C          66.7319   93.9926   13.7812 C.3     1  UNL1        0.0240
     19 C          67.1412   93.1561   14.9572 C.3     1  UNL1        0.0327
     20 C          66.6950   91.7273   15.0529 C.3     1  UNL1        0.0240
     21 C          65.8395   91.1347   13.9725 C.3     1  UNL1        0.0935
     22 C          67.9966   93.7487   16.0375 C.3     1  UNL1        0.1372
     23 O          69.4767   93.8818   15.8339 O.3     1  UNL1       -0.3820
     24 H          69.8758   92.9996   15.7765 H       1  UNL1        0.2104
     25 S          61.8095   87.5183   10.7986 S.O2    1  UNL1        0.0634
     26 O          60.5727   87.3245   11.6249 O.2     1  UNL1       -0.1528
     27 O          62.7055   87.7786    9.8229 O.2     1  UNL1       -0.1528
     28 C          60.9644   87.9362    9.6318 C.ar    1  UNL1        0.1223
     29 C          60.2220   86.9042    8.8358 C.ar    1  UNL1        0.0208
     30 C          59.3768   87.3219    7.6691 C.ar    1  UNL1        0.0128
     31 C          59.2742   88.7717    7.2984 C.ar    1  UNL1        0.0578
     32 CL         58.4291   89.1895    6.1317 Cl      1  UNL1       -0.0822
     33 C          60.0167   89.8038    8.0944 C.ar    1  UNL1        0.0128
     34 C          60.8618   89.3860    9.2612 C.ar    1  UNL1        0.0208
@<TRIPOS>BOND
     1    14    15    2
     2    15    13    1
     3    13    10    1
     4     1    10    1
     5     1     2    1
     6     2     3    1
     7     3     4    1
     8     4     5    1
     9     5     6    1
    10     6     7    1
    11     8     7    1
    12     8     9    1
    13     9    25    1
    14    25    26    2
    15    25    27    2
    16    25    28    1
    17    28    29   ar
    18    29    30   ar
    19    30    31   ar
    20    31    32    1
    21    31    33   ar
    22    33    34   ar
    23    10    11    1
    24    11    12    1
    25    15    16   am
    26    16    17    1
    27    17    18    1
    28    18    19    1
    29    19    22    1
    30    22    23    1
    31    19    20    1
    32    20    21    1
    33    12    10    1
    34    21    16    1
    35     9     1    1
    36    34    28   ar
    37     8     4    1
    38    23    24    1
@<TRIPOS>MOLECULE
*****
 34 38 0 0 0
SMALL
GASTEIGER

@<TRIPOS>ATOM
      1 C          64.4823   90.2990   14.2736 C.3     1  UNL1        0.1095
      2 C          65.5206   91.0558   15.0474 C.3     1  UNL1        0.1597
      3 O          66.1972   92.2443   14.4310 O.3     1  UNL1       -0.3533
      4 C          65.8353   92.6758   13.0407 C.3     1  UNL1        0.1315
      5 C          66.3290   93.7991   12.1780 C.3     1  UNL1        0.0311
      6 C          65.5957   93.7365   10.8710 C.3     1  UNL1        0.0041
      7 C          64.6488   92.5744   10.9259 C.3     1  UNL1        0.0203
      8 C          64.7969   91.9188   12.2669 C.3     1  UNL1        0.1066
      9 N          64.1204   90.7304   12.8833 N.3     1  UNL1       -0.1534
     10 C          63.8057   89.1105   14.8900 C.3     1  UNL1        0.0261
     11 C          62.9893   88.2918   15.8456 C.3     1  UNL1        0.0020
     12 C          63.1681   89.7624   16.0810 C.3     1  UNL1        0.0020
     13 C          64.2083   88.0459   13.9130 C.3     1  UNL1        0.0867
     14 O          65.5815   86.5692   15.5513 O.2     1  UNL1       -0.2749
     15 C          64.6186   86.6905   14.4075 C.2     1  UNL1        0.2257
     16 N          64.0660   85.4563   13.7583 N.am    1  UNL1       -0.2795
     17 C          64.4763   84.1009   14.2528 C.3     1  UNL1        0.0935
     18 C          63.9237   82.8667   13.6036 C.3     1  UNL1        0.0240
     19 C          62.9609   82.9880   12.4599 C.3     1  UNL1        0.0327
     20 C          62.5505   84.3433   11.9653 C.3     1  UNL1        0.0240
     21 C          63.1031   85.5775   12.6145 C.3     1  UNL1        0.0935
     22 C          62.4083   81.7537   11.8107 C.3     1  UNL1        0.1372
     23 O          62.8202   80.3984   12.3040 O.3     1  UNL1       -0.3820
     24 H          63.7650   80.2643   12.1298 H       1  UNL1        0.2104
     25 S          63.0820   89.9735   12.1095 S.O2    1  UNL1        0.0634
     26 O          62.0294   90.4295   13.0760 O.2     1  UNL1       -0.1528
     27 O          63.7751   89.4105   11.0970 O.2     1  UNL1       -0.1528
     28 C          62.0435   89.2166   11.3357 C.ar    1  UNL1        0.1223
     29 C          60.5975   89.3207   11.7207 C.ar    1  UNL1        0.0208
     30 C          59.5590   88.5639   10.9469 C.ar    1  UNL1        0.0128
     31 C          59.9666   87.7029    9.7883 C.ar    1  UNL1        0.0578
     32 CL         58.9280   86.9460    9.0146 Cl      1  UNL1       -0.0822
     33 C          61.4126   87.5987    9.4033 C.ar    1  UNL1        0.0128
     34 C          62.4511   88.3556   10.1770 C.ar    1  UNL1        0.0208
@<TRIPOS>BOND
     1    14    15    2
     2    15    13    1
     3    13    10    1
     4     1    10    1
     5     1     2    1
     6     2     3    1
     7     3     4    1
     8     4     5    1
     9     5     6    1
    10     6     7    1
    11     8     7    1
    12     8     9    1
    13     9    25    1
    14    25    26    2
    15    25    27    2
    16    25    28    1
    17    28    29   ar
    18    29    30   ar
    19    30    31   ar
    20    31    32    1
    21    31    33   ar
    22    33    34   ar
    23    10    11    1
    24    11    12    1
    25    15    16   am
    26    16    17    1
    27    17    18    1
    28    18    19    1
    29    19    22    1
    30    22    23    1
    31    19    20    1
    32    20    21    1
    33    12    10    1
    34    21    16    1
    35     9     1    1
    36    34    28   ar
    37     8     4    1
    38    23    24    1
@<TRIPOS>MOLECULE
*****
 34 38 0 0 0
SMALL
GASTEIGER

@<TRIPOS>ATOM
      1 C          61.8965   88.7486   11.0667 C.3     1  UNL1        0.1095
      2 C          61.4149   90.0369   10.4684 C.3     1  UNL1        0.1597
      3 O          60.5098   90.0164    9.2723 O.3     1  UNL1       -0.3533
      4 C          60.0865   88.7074    8.6746 C.3     1  UNL1        0.1315
      5 C          59.2082   88.3755    7.5048 C.3     1  UNL1        0.0311
      6 C          59.1471   86.8819    7.3801 C.3     1  UNL1        0.0041
      7 C          59.9876   86.2907    8.4729 C.3     1  UNL1        0.0203
      8 C          60.5681   87.4190    9.2729 C.3     1  UNL1        0.1066
      9 N          61.4731   87.4396   10.4690 N.3     1  UNL1       -0.1534
     10 C          62.8015   88.7692   12.2627 C.3     1  UNL1        0.0261
     11 C          63.8403   88.3308   13.2520 C.3     1  UNL1        0.0020
     12 C          63.5012   87.4546   12.0827 C.3     1  UNL1        0.0020
     13 C          62.4162   90.0909   12.8582 C.3     1  UNL1        0.0867
     14 O          63.5366   90.9920   15.0222 O.2     1  UNL1       -0.2749
     15 C          63.4540   90.9441   13.5252 C.2     1  UNL1        0.2257
     16 N          64.4094   91.7494   12.6953 N.am    1  UNL1       -0.2795
     17 C          65.4472   92.6026   13.3623 C.3     1  UNL1        0.0935
     18 C          66.4026   93.4079   12.5323 C.3     1  UNL1        0.0240
     19 C          66.3201   93.3600   11.0353 C.3     1  UNL1        0.0327
     20 C          65.2822   92.5068   10.3683 C.3     1  UNL1        0.0240
     21 C          64.3269   91.7015   11.1983 C.3     1  UNL1        0.0935
     22 C          67.2754   94.1653   10.2055 C.3     1  UNL1        0.1372
     23 O          68.5573   93.5498    9.7281 O.3     1  UNL1       -0.3820
     24 H          69.1265   93.3568   10.4894 H       1  UNL1        0.2104
     25 S          61.9548   86.1512   11.0673 S.O2    1  UNL1        0.0634
     26 O          62.8571   85.9406    9.8877 O.2     1  UNL1       -0.1528
     27 O          61.2719   86.0545   12.2278 O.2     1  UNL1       -0.1528
     28 C          62.4366   84.8627   11.6656 C.ar    1  UNL1        0.1223
     29 C          62.2623   84.6060   13.1332 C.ar    1  UNL1        0.0208
     30 C          62.7440   83.3176   13.7315 C.ar    1  UNL1        0.0128
     31 C          63.3999   82.2860   12.8623 C.ar    1  UNL1        0.0578
     32 CL         63.8817   80.9977   13.4607 Cl      1  UNL1       -0.0822
     33 C          63.5742   82.5428   11.3948 C.ar    1  UNL1        0.0128
     34 C          63.0925   83.8312   10.7964 C.ar    1  UNL1        0.0208
@<TRIPOS>BOND
     1    14    15    2
     2    15    13    1
     3    13    10    1
     4     1    10    1
     5     1     2    1
     6     2     3    1
     7     3     4    1
     8     4     5    1
     9     5     6    1
    10     6     7    1
    11     8     7    1
    12     8     9    1
    13     9    25    1
    14    25    26    2
    15    25    27    2
    16    25    28    1
    17    28    29   ar
    18    29    30   ar
    19    30    31   ar
    20    31    32    1
    21    31    33   ar
    22    33    34   ar
    23    10    11    1
    24    11    12    1
    25    15    16   am
    26    16    17    1
    27    17    18    1
    28    18    19    1
    29    19    22    1
    30    22    23    1
    31    19    20    1
    32    20    21    1
    33    12    10    1
    34    21    16    1
    35     9     1    1
    36    34    28   ar
    37     8     4    1
    38    23    24    1
@<TRIPOS>MOLECULE
*****
 34 38 0 0 0
SMALL
GASTEIGER

@<TRIPOS>ATOM
      1 C          62.9955   90.4808   11.5613 C.3     1  UNL1        0.1095
      2 C          63.1932   91.3553   10.3588 C.3     1  UNL1        0.1597
      3 O          64.3464   92.3134   10.3096 O.3     1  UNL1       -0.3533
      4 C          65.3018   92.3968   11.4629 C.3     1  UNL1        0.1315
      5 C          66.5207   93.2390   11.6975 C.3     1  UNL1        0.0311
      6 C          67.0763   92.8848   13.0451 C.3     1  UNL1        0.0041
      7 C          66.2008   91.8239   13.6433 C.3     1  UNL1        0.0203
      8 C          65.1041   91.5223   12.6654 C.3     1  UNL1        0.1066
      9 N          63.9509   90.5642   12.7146 N.3     1  UNL1       -0.1534
     10 C          61.8423   89.5227   11.6105 C.3     1  UNL1        0.0261
     11 C          60.4740   88.9774   11.8935 C.3     1  UNL1        0.0020
     12 C          60.8220   90.3785   12.3009 C.3     1  UNL1        0.0020
     13 C          62.4622   88.3343   10.9372 C.3     1  UNL1        0.0867
     14 O          61.6220   85.9634   10.2869 O.2     1  UNL1       -0.2749
     15 C          61.6263   87.4466   10.0635 C.2     1  UNL1        0.2257
     16 N          60.7946   88.0423    8.9664 N.am    1  UNL1       -0.2795
     17 C          59.9587   87.1547    8.0927 C.3     1  UNL1        0.0935
     18 C          59.1270   87.7503    6.9956 C.3     1  UNL1        0.0240
     19 C          59.1313   89.2336    6.7723 C.3     1  UNL1        0.0327
     20 C          59.9673   90.1212    7.6460 C.3     1  UNL1        0.0240
     21 C          60.7989   89.5256    8.7431 C.3     1  UNL1        0.0935
     22 C          58.2997   89.8292    5.6752 C.3     1  UNL1        0.1372
     23 O          58.4441   91.2814    5.3286 O.3     1  UNL1       -0.3820
     24 H          58.1415   91.8234    6.0740 H       1  UNL1        0.2104
     25 S          63.7532   89.6897   13.9171 S.O2    1  UNL1        0.0634
     26 O          63.2042   90.8600   14.6780 O.2     1  UNL1       -0.1528
     27 O          64.1896   88.4773   13.5145 O.2     1  UNL1       -0.1528
     28 C          63.5554   88.8151   15.1197 C.ar    1  UNL1        0.1223
     29 C          63.0664   89.4097   16.4070 C.ar    1  UNL1        0.0208
     30 C          62.8686   88.5353   17.6096 C.ar    1  UNL1        0.0128
     31 C          63.1599   87.0663   17.5248 C.ar    1  UNL1        0.0578
     32 CL         62.9621   86.1919   18.7274 Cl      1  UNL1       -0.0822
     33 C          63.6489   86.4717   16.2375 C.ar    1  UNL1        0.0128
     34 C          63.8467   87.3462   15.0348 C.ar    1  UNL1        0.0208
@<TRIPOS>BOND
     1    14    15    2
     2    15    13    1
     3    13    10    1
     4     1    10    1
     5     1     2    1
     6     2     3    1
     7     3     4    1
     8     4     5    1
     9     5     6    1
    10     6     7    1
    11     8     7    1
    12     8     9    1
    13     9    25    1
    14    25    26    2
    15    25    27    2
    16    25    28    1
    17    28    29   ar
    18    29    30   ar
    19    30    31   ar
    20    31    32    1
    21    31    33   ar
    22    33    34   ar
    23    10    11    1
    24    11    12    1
    25    15    16   am
    26    16    17    1
    27    17    18    1
    28    18    19    1
    29    19    22    1
    30    22    23    1
    31    19    20    1
    32    20    21    1
    33    12    10    1
    34    21    16    1
    35     9     1    1
    36    34    28   ar
    37     8     4    1
    38    23    24    1
@<TRIPOS>MOLECULE
*****
 34 38 0 0 0
SMALL
GASTEIGER

@<TRIPOS>ATOM
      1 C          63.1412   90.8312   11.5893 C.3     1  UNL1        0.1095
      2 C          63.3769   91.7546   10.4311 C.3     1  UNL1        0.1597
      3 O          64.6070   92.6123   10.3938 O.3     1  UNL1       -0.3533
      4 C          65.6013   92.5465   11.5150 C.3     1  UNL1        0.1315
      5 C          66.8955   93.2668   11.7522 C.3     1  UNL1        0.0311
      6 C          67.4597   92.7884   13.0571 C.3     1  UNL1        0.0041
      7 C          66.5142   91.7726   13.6264 C.3     1  UNL1        0.0203
      8 C          65.3656   91.6231   12.6733 C.3     1  UNL1        0.1066
      9 N          64.1356   90.7654   12.7104 N.3     1  UNL1       -0.1534
     10 C          61.9112   89.9734   11.6265 C.3     1  UNL1        0.0261
     11 C          60.5882   89.4250   12.0724 C.3     1  UNL1        0.0020
     12 C          61.2162   90.5661   12.8164 C.3     1  UNL1        0.0020
     13 C          62.1790   89.0829   10.4495 C.3     1  UNL1        0.0867
     14 O          59.8603   89.6169    9.4062 O.2     1  UNL1       -0.2749
     15 C          61.0666   88.7310    9.5068 C.2     1  UNL1        0.2257
     16 N          61.1604   87.4932    8.6647 N.am    1  UNL1       -0.2795
     17 C          60.0480   87.1414    7.7220 C.3     1  UNL1        0.0935
     18 C          60.1418   85.9036    6.8799 C.3     1  UNL1        0.0240
     19 C          61.3481   85.0177    6.9805 C.3     1  UNL1        0.0327
     20 C          62.4605   85.3695    7.9232 C.3     1  UNL1        0.0240
     21 C          62.3667   86.6073    8.7654 C.3     1  UNL1        0.0935
     22 C          61.4418   83.7800    6.1384 C.3     1  UNL1        0.1372
     23 O          62.0267   83.8537    4.7591 O.3     1  UNL1       -0.3820
     24 H          61.4523   84.3923    4.1927 H       1  UNL1        0.2104
     25 S          63.8999   89.8419   13.8687 S.O2    1  UNL1        0.0634
     26 O          63.6796   91.0236   14.7660 O.2     1  UNL1       -0.1528
     27 O          64.0409   88.6090   13.3375 O.2     1  UNL1       -0.1528
     28 C          63.6642   88.9185   15.0271 C.ar    1  UNL1        0.1223
     29 C          63.9971   87.4611   14.9042 C.ar    1  UNL1        0.0208
     30 C          63.7615   86.5377   16.0625 C.ar    1  UNL1        0.0128
     31 C          63.1928   87.0717   17.3437 C.ar    1  UNL1        0.0578
     32 CL         62.9571   86.1482   18.5020 Cl      1  UNL1       -0.0822
     33 C          62.8598   88.5291   17.4666 C.ar    1  UNL1        0.0128
     34 C          63.0955   89.4525   16.3083 C.ar    1  UNL1        0.0208
@<TRIPOS>BOND
     1    14    15    2
     2    15    13    1
     3    13    10    1
     4     1    10    1
     5     1     2    1
     6     2     3    1
     7     3     4    1
     8     4     5    1
     9     5     6    1
    10     6     7    1
    11     8     7    1
    12     8     9    1
    13     9    25    1
    14    25    26    2
    15    25    27    2
    16    25    28    1
    17    28    29   ar
    18    29    30   ar
    19    30    31   ar
    20    31    32    1
    21    31    33   ar
    22    33    34   ar
    23    10    11    1
    24    11    12    1
    25    15    16   am
    26    16    17    1
    27    17    18    1
    28    18    19    1
    29    19    22    1
    30    22    23    1
    31    19    20    1
    32    20    21    1
    33    12    10    1
    34    21    16    1
    35     9     1    1
    36    34    28   ar
    37     8     4    1
    38    23    24    1
@<TRIPOS>MOLECULE
*****
 34 38 0 0 0
SMALL
GASTEIGER

@<TRIPOS>ATOM
      1 C          61.9929   88.6192   11.1276 C.3     1  UNL1        0.1095
      2 C          61.5528   89.9250   10.5353 C.3     1  UNL1        0.1597
      3 O          60.6591   89.9388    9.3306 O.3     1  UNL1       -0.3533
      4 C          60.2056   88.6468    8.7183 C.3     1  UNL1        0.1315
      5 C          59.3299   88.3485    7.5376 C.3     1  UNL1        0.0311
      6 C          59.2289   86.8582    7.4003 C.3     1  UNL1        0.0041
      7 C          60.0421   86.2355    8.4961 C.3     1  UNL1        0.0203
      8 C          60.6458   87.3409    9.3107 C.3     1  UNL1        0.1066
      9 N          61.5395   87.3271   10.5154 N.3     1  UNL1       -0.1534
     10 C          62.8866   88.6053   12.3323 C.3     1  UNL1        0.0261
     11 C          63.9211   88.1420   13.3146 C.3     1  UNL1        0.0020
     12 C          63.6026   87.3060   12.1106 C.3     1  UNL1        0.0020
     13 C          62.4809   89.8998   12.9725 C.3     1  UNL1        0.0867
     14 O          62.2800   89.7072   15.5556 O.2     1  UNL1       -0.2749
     15 C          62.9799   90.2472   14.3437 C.2     1  UNL1        0.2257
     16 N          64.1788   91.1345   14.5031 N.am    1  UNL1       -0.2795
     17 C          64.6777   91.4818   15.8744 C.3     1  UNL1        0.0935
     18 C          65.8766   92.3691   16.0338 C.3     1  UNL1        0.0240
     19 C          66.5765   92.9091   14.8219 C.3     1  UNL1        0.0327
     20 C          66.0776   92.5617   13.4507 C.3     1  UNL1        0.0240
     21 C          64.8787   91.6744   13.2912 C.3     1  UNL1        0.0935
     22 C          67.7754   93.7963   14.9814 C.3     1  UNL1        0.1372
     23 O          69.1501   93.1982   15.0292 O.3     1  UNL1       -0.3820
     24 H          69.2401   92.6583   15.8301 H       1  UNL1        0.2104
     25 S          61.9797   86.0212   11.1078 S.O2    1  UNL1        0.0634
     26 O          62.8696   85.7841    9.9238 O.2     1  UNL1       -0.1528
     27 O          61.2984   85.9439   12.2706 O.2     1  UNL1       -0.1528
     28 C          62.4199   84.7153   11.7001 C.ar    1  UNL1        0.1223
     29 C          63.0080   83.6528   10.8196 C.ar    1  UNL1        0.0208
     30 C          63.4483   82.3469   11.4119 C.ar    1  UNL1        0.0128
     31 C          63.3004   82.1035   12.8846 C.ar    1  UNL1        0.0578
     32 CL         63.7407   80.7976   13.4768 Cl      1  UNL1       -0.0822
     33 C          62.7123   83.1660   13.7650 C.ar    1  UNL1        0.0128
     34 C          62.2720   84.4719   13.1728 C.ar    1  UNL1        0.0208
@<TRIPOS>BOND
     1    14    15    2
     2    15    13    1
     3    13    10    1
     4     1    10    1
     5     1     2    1
     6     2     3    1
     7     3     4    1
     8     4     5    1
     9     5     6    1
    10     6     7    1
    11     8     7    1
    12     8     9    1
    13     9    25    1
    14    25    26    2
    15    25    27    2
    16    25    28    1
    17    28    29   ar
    18    29    30   ar
    19    30    31   ar
    20    31    32    1
    21    31    33   ar
    22    33    34   ar
    23    10    11    1
    24    11    12    1
    25    15    16   am
    26    16    17    1
    27    17    18    1
    28    18    19    1
    29    19    22    1
    30    22    23    1
    31    19    20    1
    32    20    21    1
    33    12    10    1
    34    21    16    1
    35     9     1    1
    36    34    28   ar
    37     8     4    1
    38    23    24    1
