@<TRIPOS>MOLECULE
*****
 36 39 0 0 0
SMALL
GASTEIGER

@<TRIPOS>ATOM
      1 N          61.6703   87.4358   11.3109 N.ar    1  UNL1       -0.2459
      2 C          61.9299   88.3565   10.1556 C.ar    1  UNL1        0.1116
      3 C          60.6055   88.8182    9.6240 C.ar    1  UNL1        0.0908
      4 C          59.5272   88.1828   10.4508 C.ar    1  UNL1        0.1363
      5 N          60.1853   87.3285   11.4934 N.ar    1  UNL1       -0.1661
      6 N          60.3960   89.7514    8.4684 N.am    1  UNL1       -0.2762
      7 C          59.5519   89.3255    7.3039 C.2     1  UNL1        0.2754
      8 O          58.9173   87.9664    7.2950 O.2     1  UNL1       -0.2675
      9 H          60.8126   90.6434    8.4743 H       1  UNL1        0.1553
     10 C          59.3425   90.2587    6.1484 C.ar    1  UNL1        0.1872
     11 N          58.0186   90.7359    5.6292 N.ar    1  UNL1       -0.1361
     12 N          58.2782   91.6507    4.4691 N.ar    1  UNL1       -0.1391
     13 C          59.7625   91.7388    4.2712 C.ar    1  UNL1        0.1529
     14 S          60.4203   90.8784    5.3091 S.2     1  UNL1       -0.0394
     15 C          60.4655   92.5455    3.2201 C.ar    1  UNL1        0.1260
     16 C          61.9012   92.2608    2.8915 C.ar    1  UNL1        0.1201
     17 N          62.6042   93.0675    1.8404 N.ar    1  UNL1       -0.2390
     18 C          61.8716   94.1589    1.1178 C.ar    1  UNL1        0.1195
     19 C          60.4360   94.4436    1.4463 C.ar    1  UNL1        0.1195
     20 N          59.7330   93.6369    2.4975 N.ar    1  UNL1       -0.2385
     21 C          63.8127   87.5389   12.7771 C.3     1  UNL1        0.0312
     22 C          62.7126   86.7439   12.1385 C.3     1  UNL1        0.1274
     23 C          62.6548   85.2570   12.3276 C.ar    1  UNL1        0.0038
     24 C          62.5277   84.6806   13.7066 C.ar    1  UNL1       -0.0025
     25 C          62.4699   83.1937   13.8956 C.ar    1  UNL1        0.0036
     26 C          62.5392   82.2832   12.7056 C.ar    1  UNL1        0.0714
     27 C          62.6663   82.8595   11.3266 C.ar    1  UNL1        0.0074
     28 C          62.7241   84.3464   11.1376 C.ar    1  UNL1        0.0692
     29 C          62.4814   80.7962   12.8946 C.3     1  UNL1        0.4186
     30 F          62.4236   79.3093   13.0836 F       1  UNL1       -0.1659
     31 F          62.1074   80.9937   14.3337 F       1  UNL1       -0.1659
     32 F          62.8554   80.5988   11.4555 F       1  UNL1       -0.1659
     33 C          62.8511   84.9228    9.7585 C.3     1  UNL1        0.4183
     34 F          62.9782   85.4992    8.3796 F       1  UNL1       -0.1659
     35 F          61.3862   85.2453    9.7584 F       1  UNL1       -0.1659
     36 F          64.3160   84.6004    9.7587 F       1  UNL1       -0.1659
@<TRIPOS>BOND
     1    22    21    1
     2    22    23    1
     3    23    24   ar
     4    24    25   ar
     5    25    26   ar
     6    26    29    1
     7    29    30    1
     8    29    31    1
     9    29    32    1
    10    26    27   ar
    11    27    28   ar
    12    28    33    1
    13    33    34    1
    14    33    35    1
    15    33    36    1
    16    22     1    1
    17     1     2   ar
    18     2     3   ar
    19     3     6    1
    20     6     7   am
    21     7     8    2
    22     7    10    1
    23    10    11   ar
    24    11    12   ar
    25    12    13   ar
    26    13    15    1
    27    15    16   ar
    28    16    17   ar
    29    17    18   ar
    30    18    19   ar
    31    19    20   ar
    32    13    14   ar
    33     3     4   ar
    34     4     5   ar
    35    28    23   ar
    36     5     1   ar
    37    14    10   ar
    38    20    15   ar
    39     6     9    1
@<TRIPOS>MOLECULE
*****
 36 39 0 0 0
SMALL
GASTEIGER

@<TRIPOS>ATOM
      1 N          64.4632   90.4465   15.4153 N.ar    1  UNL1       -0.2459
      2 C          64.5878   89.2053   14.5822 C.ar    1  UNL1        0.1116
      3 C          63.6790   88.1634   15.1640 C.ar    1  UNL1        0.0908
      4 C          62.9927   88.7606   16.3567 C.ar    1  UNL1        0.1363
      5 N          63.4774   90.1716   16.5119 N.ar    1  UNL1       -0.1661
      6 N          63.4897   86.7691   14.6444 N.am    1  UNL1       -0.2762
      7 C          63.3413   85.6251   15.6031 C.2     1  UNL1        0.2754
      8 O          63.3822   85.8754   17.0816 O.2     1  UNL1       -0.2675
      9 H          63.4628   86.6048   13.6741 H       1  UNL1        0.1553
     10 C          63.1520   84.2308   15.0835 C.ar    1  UNL1        0.1872
     11 N          62.7963   83.0254   15.9023 N.ar    1  UNL1       -0.1361
     12 N          62.7097   81.8467   14.9786 N.ar    1  UNL1       -0.1391
     13 C          63.0117   82.3236   13.5889 C.ar    1  UNL1        0.1529
     14 S          63.2851   83.7971   13.6537 S.2     1  UNL1       -0.0394
     15 C          63.0362   81.4759   12.3517 C.ar    1  UNL1        0.1260
     16 C          63.4783   82.0673   11.0459 C.ar    1  UNL1        0.1201
     17 N          63.5028   81.2196    9.8087 N.ar    1  UNL1       -0.2390
     18 C          63.0850   79.7806    9.8771 C.ar    1  UNL1        0.1195
     19 C          62.6429   79.1892   11.1828 C.ar    1  UNL1        0.1195
     20 N          62.6184   80.0369   12.4200 N.ar    1  UNL1       -0.2385
     21 C          65.3448   92.7191   16.3142 C.3     1  UNL1        0.0312
     22 C          65.1958   91.7361   15.1911 C.3     1  UNL1        0.1274
     23 C          65.7794   92.0426   13.8436 C.ar    1  UNL1        0.0038
     24 C          64.8887   92.1129   12.6389 C.ar    1  UNL1       -0.0025
     25 C          65.4723   92.4195   11.2915 C.ar    1  UNL1        0.0036
     26 C          66.9467   92.6557   11.1490 C.ar    1  UNL1        0.0714
     27 C          67.8375   92.5854   12.3538 C.ar    1  UNL1        0.0074
     28 C          67.2539   92.2788   13.7011 C.ar    1  UNL1        0.0692
     29 C          67.5304   92.9622    9.8015 C.3     1  UNL1        0.4186
     30 F          68.1140   93.2688    8.4542 F       1  UNL1       -0.1659
     31 F          67.9324   91.5252    9.6487 F       1  UNL1       -0.1659
     32 F          67.1283   94.3992    9.9544 F       1  UNL1       -0.1659
     33 C          68.1446   92.2085   14.9060 C.3     1  UNL1        0.4183
     34 F          69.0353   92.1381   16.1108 F       1  UNL1       -0.1659
     35 F          67.9946   90.7163   14.9298 F       1  UNL1       -0.1659
     36 F          68.2947   93.7008   14.8822 F       1  UNL1       -0.1659
@<TRIPOS>BOND
     1    22    21    1
     2    22    23    1
     3    23    24   ar
     4    24    25   ar
     5    25    26   ar
     6    26    29    1
     7    29    30    1
     8    29    31    1
     9    29    32    1
    10    26    27   ar
    11    27    28   ar
    12    28    33    1
    13    33    34    1
    14    33    35    1
    15    33    36    1
    16    22     1    1
    17     1     2   ar
    18     2     3   ar
    19     3     6    1
    20     6     7   am
    21     7     8    2
    22     7    10    1
    23    10    11   ar
    24    11    12   ar
    25    12    13   ar
    26    13    15    1
    27    15    16   ar
    28    16    17   ar
    29    17    18   ar
    30    18    19   ar
    31    19    20   ar
    32    13    14   ar
    33     3     4   ar
    34     4     5   ar
    35    28    23   ar
    36     5     1   ar
    37    14    10   ar
    38    20    15   ar
    39     6     9    1
@<TRIPOS>MOLECULE
*****
 36 39 0 0 0
SMALL
GASTEIGER

@<TRIPOS>ATOM
      1 N          61.7251   87.3934   11.3289 N.ar    1  UNL1       -0.2459
      2 C          61.9659   88.2244   10.1036 C.ar    1  UNL1        0.1116
      3 C          60.6626   88.8509    9.7049 C.ar    1  UNL1        0.0908
      4 C          59.6163   88.4070   10.6837 C.ar    1  UNL1        0.1363
      5 N          60.2729   87.5062   11.6874 N.ar    1  UNL1       -0.1661
      6 N          60.4441   89.7614    8.5330 N.am    1  UNL1       -0.2762
      7 C          59.5730   89.3217    7.3939 C.2     1  UNL1        0.2754
      8 O          58.9203   87.9715    7.4265 O.2     1  UNL1       -0.2675
      9 H          60.8724   90.6476    8.5116 H       1  UNL1        0.1553
     10 C          59.3544   90.2322    6.2220 C.ar    1  UNL1        0.1872
     11 N          58.0264   90.6982    5.7031 N.ar    1  UNL1       -0.1361
     12 N          58.2769   91.5906    4.5237 N.ar    1  UNL1       -0.1391
     13 C          59.7596   91.6761    4.3137 C.ar    1  UNL1        0.1529
     14 S          60.4257   90.8365    5.3633 S.2     1  UNL1       -0.0394
     15 C          60.4544   92.4629    3.2421 C.ar    1  UNL1        0.1260
     16 C          61.9103   92.2306    2.9657 C.ar    1  UNL1        0.1201
     17 N          62.6051   93.0174    1.8942 N.ar    1  UNL1       -0.2390
     18 C          61.8439   94.0366    1.0991 C.ar    1  UNL1        0.1195
     19 C          60.3881   94.2688    1.3756 C.ar    1  UNL1        0.1195
     20 N          59.6933   93.4820    2.4471 N.ar    1  UNL1       -0.2385
     21 C          63.7562   87.2805   12.9450 C.3     1  UNL1        0.0312
     22 C          62.7554   86.5904   12.0662 C.3     1  UNL1        0.1274
     23 C          62.7850   85.0973   11.9247 C.ar    1  UNL1        0.0038
     24 C          62.6318   84.4691   10.5713 C.ar    1  UNL1       -0.0025
     25 C          62.6614   82.9761   10.4299 C.ar    1  UNL1        0.0036
     26 C          62.8442   82.1114   11.6418 C.ar    1  UNL1        0.0714
     27 C          62.9975   82.7396   12.9952 C.ar    1  UNL1        0.0074
     28 C          62.9679   84.2326   13.1367 C.ar    1  UNL1        0.0692
     29 C          62.8738   80.6183   11.5003 C.3     1  UNL1        0.4186
     30 F          62.9034   79.1253   11.3588 F       1  UNL1       -0.1659
     31 F          62.6127   80.4738   12.9703 F       1  UNL1       -0.1659
     32 F          63.1349   80.7628   10.0304 F       1  UNL1       -0.1659
     33 C          63.1211   84.8610   14.4901 C.3     1  UNL1        0.4183
     34 F          63.2743   85.4893   15.8435 F       1  UNL1       -0.1659
     35 F          61.6350   84.8034   14.6851 F       1  UNL1       -0.1659
     36 F          64.6072   84.9186   14.2952 F       1  UNL1       -0.1659
@<TRIPOS>BOND
     1    22    21    1
     2    22    23    1
     3    23    24   ar
     4    24    25   ar
     5    25    26   ar
     6    26    29    1
     7    29    30    1
     8    29    31    1
     9    29    32    1
    10    26    27   ar
    11    27    28   ar
    12    28    33    1
    13    33    34    1
    14    33    35    1
    15    33    36    1
    16    22     1    1
    17     1     2   ar
    18     2     3   ar
    19     3     6    1
    20     6     7   am
    21     7     8    2
    22     7    10    1
    23    10    11   ar
    24    11    12   ar
    25    12    13   ar
    26    13    15    1
    27    15    16   ar
    28    16    17   ar
    29    17    18   ar
    30    18    19   ar
    31    19    20   ar
    32    13    14   ar
    33     3     4   ar
    34     4     5   ar
    35    28    23   ar
    36     5     1   ar
    37    14    10   ar
    38    20    15   ar
    39     6     9    1
@<TRIPOS>MOLECULE
*****
 36 39 0 0 0
SMALL
GASTEIGER

@<TRIPOS>ATOM
      1 N          63.9241   87.0406   13.5304 N.ar    1  UNL1       -0.2459
      2 C          63.1105   86.9702   12.2722 C.ar    1  UNL1        0.1116
      3 C          62.7656   88.3719   11.8642 C.ar    1  UNL1        0.0908
      4 C          63.3661   89.3085   12.8703 C.ar    1  UNL1        0.1363
      5 N          64.0821   88.4857   13.9000 N.ar    1  UNL1       -0.1661
      6 N          61.9614   88.7674   10.6614 N.am    1  UNL1       -0.2762
      7 C          60.9925   87.7964   10.0546 C.2     1  UNL1        0.2754
      8 O          60.8277   86.4298   10.6507 O.2     1  UNL1       -0.2675
      9 H          62.0696   89.6644   10.2701 H       1  UNL1        0.1553
     10 C          60.1883   88.1919    8.8518 C.ar    1  UNL1        0.1872
     11 N          59.0093   87.4494    8.2963 N.ar    1  UNL1       -0.1361
     12 N          58.5144   88.1980    7.0944 N.ar    1  UNL1       -0.1391
     13 C          59.3874   89.4033    6.9071 C.ar    1  UNL1        0.1529
     14 S          60.4220   89.3996    7.9932 S.2     1  UNL1       -0.0394
     15 C          59.2500   90.4318    5.8238 C.ar    1  UNL1        0.1260
     16 C          57.8949   90.9639    5.4624 C.ar    1  UNL1        0.1201
     17 N          57.7575   91.9924    4.3792 N.ar    1  UNL1       -0.2390
     18 C          58.9752   92.4887    3.6574 C.ar    1  UNL1        0.1195
     19 C          60.3302   91.9566    4.0188 C.ar    1  UNL1        0.1195
     20 N          60.4676   90.9281    5.1021 N.ar    1  UNL1       -0.2385
     21 C          65.6503   86.0617   15.2073 C.3     1  UNL1        0.0312
     22 C          64.4818   85.8711   14.2862 C.3     1  UNL1        0.1274
     23 C          63.8711   84.5110   14.1210 C.ar    1  UNL1        0.0038
     24 C          64.3492   83.6019   13.0279 C.ar    1  UNL1       -0.0025
     25 C          63.7384   82.2420   12.8627 C.ar    1  UNL1        0.0036
     26 C          62.6495   81.7910   13.7906 C.ar    1  UNL1        0.0714
     27 C          62.1714   82.7001   14.8837 C.ar    1  UNL1        0.0074
     28 C          62.7822   84.0601   15.0489 C.ar    1  UNL1        0.0692
     29 C          62.0387   80.4310   13.6253 C.3     1  UNL1        0.4186
     30 F          61.4280   79.0710   13.4601 F       1  UNL1       -0.1659
     31 F          63.1213   80.0627   12.6546 F       1  UNL1       -0.1659
     32 F          60.9562   80.7992   14.5960 F       1  UNL1       -0.1659
     33 C          62.3040   84.9693   16.1420 C.3     1  UNL1        0.4183
     34 F          61.8259   85.8784   17.2351 F       1  UNL1       -0.1659
     35 F          60.9898   85.1265   15.4363 F       1  UNL1       -0.1659
     36 F          63.6183   84.8120   16.8477 F       1  UNL1       -0.1659
@<TRIPOS>BOND
     1    22    21    1
     2    22    23    1
     3    23    24   ar
     4    24    25   ar
     5    25    26   ar
     6    26    29    1
     7    29    30    1
     8    29    31    1
     9    29    32    1
    10    26    27   ar
    11    27    28   ar
    12    28    33    1
    13    33    34    1
    14    33    35    1
    15    33    36    1
    16    22     1    1
    17     1     2   ar
    18     2     3   ar
    19     3     6    1
    20     6     7   am
    21     7     8    2
    22     7    10    1
    23    10    11   ar
    24    11    12   ar
    25    12    13   ar
    26    13    15    1
    27    15    16   ar
    28    16    17   ar
    29    17    18   ar
    30    18    19   ar
    31    19    20   ar
    32    13    14   ar
    33     3     4   ar
    34     4     5   ar
    35    28    23   ar
    36     5     1   ar
    37    14    10   ar
    38    20    15   ar
    39     6     9    1
@<TRIPOS>MOLECULE
*****
 36 39 0 0 0
SMALL
GASTEIGER

@<TRIPOS>ATOM
      1 N          63.7013   86.1567   13.1763 N.ar    1  UNL1       -0.2459
      2 C          62.8173   86.2697   11.9698 C.ar    1  UNL1        0.1116
      3 C          62.5619   87.7260   11.7171 C.ar    1  UNL1        0.0908
      4 C          63.2881   88.5131   12.7674 C.ar    1  UNL1        0.1363
      5 N          63.9923   87.5431   13.6693 N.ar    1  UNL1       -0.1661
      6 N          61.7269   88.2953   10.6086 N.am    1  UNL1       -0.2762
      7 C          60.9009   87.3854    9.7486 C.2     1  UNL1        0.2754
      8 O          60.9099   85.9061    9.9971 O.2     1  UNL1       -0.2675
      9 H          61.7210   89.2662   10.4456 H       1  UNL1        0.1553
     10 C          60.0659   87.9547    8.6402 C.ar    1  UNL1        0.1872
     11 N          58.7293   87.4429    8.1910 N.ar    1  UNL1       -0.1361
     12 N          58.2583   88.3077    7.0595 N.ar    1  UNL1       -0.1391
     13 C          59.3037   89.3539    6.8094 C.ar    1  UNL1        0.1529
     14 S          60.4209   89.1358    7.7863 S.2     1  UNL1       -0.0394
     15 C          59.2426   90.4295    5.7656 C.ar    1  UNL1        0.1260
     16 C          57.9184   91.0037    5.3569 C.ar    1  UNL1        0.1201
     17 N          57.8574   92.0792    4.3131 N.ar    1  UNL1       -0.2390
     18 C          59.1205   92.5806    3.6781 C.ar    1  UNL1        0.1195
     19 C          60.4446   92.0064    4.0868 C.ar    1  UNL1        0.1195
     20 N          60.5056   90.9308    5.1305 N.ar    1  UNL1       -0.2385
     21 C          65.5923   84.8182   14.3523 C.3     1  UNL1        0.0312
     22 C          64.2058   84.8811   13.7833 C.3     1  UNL1        0.1274
     23 C          63.3238   83.6684   13.8213 C.ar    1  UNL1        0.0038
     24 C          62.4506   83.4131   15.0139 C.ar    1  UNL1       -0.0025
     25 C          61.5686   82.2004   15.0518 C.ar    1  UNL1        0.0036
     26 C          61.5599   81.2430   13.8972 C.ar    1  UNL1        0.0714
     27 C          62.4331   81.4982   12.7046 C.ar    1  UNL1        0.0074
     28 C          63.3151   82.7109   12.6667 C.ar    1  UNL1        0.0692
     29 C          60.6779   80.0302   13.9352 C.3     1  UNL1        0.4186
     30 F          59.7959   78.8176   13.9732 F       1  UNL1       -0.1659
     31 F          61.8504   79.1661   13.5769 F       1  UNL1       -0.1659
     32 F          59.5053   80.8943   14.2934 F       1  UNL1       -0.1659
     33 C          64.1884   82.9662   11.4741 C.3     1  UNL1        0.4183
     34 F          65.0617   83.2214   10.2815 F       1  UNL1       -0.1659
     35 F          65.3317   82.2845   12.1654 F       1  UNL1       -0.1659
     36 F          63.0451   83.6478   10.7827 F       1  UNL1       -0.1659
@<TRIPOS>BOND
     1    22    21    1
     2    22    23    1
     3    23    24   ar
     4    24    25   ar
     5    25    26   ar
     6    26    29    1
     7    29    30    1
     8    29    31    1
     9    29    32    1
    10    26    27   ar
    11    27    28   ar
    12    28    33    1
    13    33    34    1
    14    33    35    1
    15    33    36    1
    16    22     1    1
    17     1     2   ar
    18     2     3   ar
    19     3     6    1
    20     6     7   am
    21     7     8    2
    22     7    10    1
    23    10    11   ar
    24    11    12   ar
    25    12    13   ar
    26    13    15    1
    27    15    16   ar
    28    16    17   ar
    29    17    18   ar
    30    18    19   ar
    31    19    20   ar
    32    13    14   ar
    33     3     4   ar
    34     4     5   ar
    35    28    23   ar
    36     5     1   ar
    37    14    10   ar
    38    20    15   ar
    39     6     9    1
@<TRIPOS>MOLECULE
*****
 36 39 0 0 0
SMALL
GASTEIGER

@<TRIPOS>ATOM
      1 N          61.1602   88.0455    9.9199 N.ar    1  UNL1       -0.2459
      2 C          62.2246   88.5029   10.8728 C.ar    1  UNL1        0.1116
      3 C          61.9754   89.9483   11.1872 C.ar    1  UNL1        0.0908
      4 C          60.7570   90.3842   10.4286 C.ar    1  UNL1        0.1363
      5 N          60.2532   89.2083    9.6454 N.ar    1  UNL1       -0.1661
      6 N          62.7998   90.8069   12.0999 N.am    1  UNL1       -0.2762
      7 C          63.5649   90.1823   13.2288 C.2     1  UNL1        0.2754
      8 O          63.5055   88.6992   13.4451 O.2     1  UNL1       -0.2675
      9 H          62.8388   91.7803   11.9580 H       1  UNL1        0.1553
     10 C          64.3893   91.0409   14.1416 C.ar    1  UNL1        0.1872
     11 N          63.9268   91.6575   15.4283 N.ar    1  UNL1       -0.1361
     12 N          65.0727   92.4314   16.0098 N.ar    1  UNL1       -0.1391
     13 C          66.2435   92.2930   15.0823 C.ar    1  UNL1        0.1529
     14 S          65.8212   91.4337   13.9277 S.2     1  UNL1       -0.0394
     15 C          67.5987   92.9063   15.2756 C.ar    1  UNL1        0.1260
     16 C          68.7807   92.3645   14.5277 C.ar    1  UNL1        0.1201
     17 N          70.1359   92.9778   14.7210 N.ar    1  UNL1       -0.2390
     18 C          70.3090   94.1330   15.6621 C.ar    1  UNL1        0.1195
     19 C          69.1270   94.6748   16.4099 C.ar    1  UNL1        0.1195
     20 N          67.7719   94.0615   16.2167 N.ar    1  UNL1       -0.2385
     21 C          60.1214   86.4299    8.1705 C.3     1  UNL1        0.0312
     22 C          61.0264   86.6674    9.3429 C.3     1  UNL1        0.1274
     23 C          61.7975   85.5269    9.9384 C.ar    1  UNL1        0.0038
     24 C          61.6936   85.2366   11.4063 C.ar    1  UNL1       -0.0025
     25 C          62.4648   84.0961   12.0017 C.ar    1  UNL1        0.0036
     26 C          63.3398   83.2459   11.1291 C.ar    1  UNL1        0.0714
     27 C          63.4437   83.5361    9.6612 C.ar    1  UNL1        0.0074
     28 C          62.6726   84.6766    9.0658 C.ar    1  UNL1        0.0692
     29 C          64.1110   82.1053   11.7246 C.3     1  UNL1        0.4186
     30 F          64.8821   80.9648   12.3200 F       1  UNL1       -0.1659
     31 F          64.8472   83.0657   12.6108 F       1  UNL1       -0.1659
     32 F          63.3748   81.1449   10.8383 F       1  UNL1       -0.1659
     33 C          62.7765   84.9670    7.5978 C.3     1  UNL1        0.4183
     34 F          62.8804   85.2573    6.1299 F       1  UNL1       -0.1659
     35 F          63.8338   85.9939    7.8758 F       1  UNL1       -0.1659
     36 F          61.7191   83.9400    7.3198 F       1  UNL1       -0.1659
@<TRIPOS>BOND
     1    22    21    1
     2    22    23    1
     3    23    24   ar
     4    24    25   ar
     5    25    26   ar
     6    26    29    1
     7    29    30    1
     8    29    31    1
     9    29    32    1
    10    26    27   ar
    11    27    28   ar
    12    28    33    1
    13    33    34    1
    14    33    35    1
    15    33    36    1
    16    22     1    1
    17     1     2   ar
    18     2     3   ar
    19     3     6    1
    20     6     7   am
    21     7     8    2
    22     7    10    1
    23    10    11   ar
    24    11    12   ar
    25    12    13   ar
    26    13    15    1
    27    15    16   ar
    28    16    17   ar
    29    17    18   ar
    30    18    19   ar
    31    19    20   ar
    32    13    14   ar
    33     3     4   ar
    34     4     5   ar
    35    28    23   ar
    36     5     1   ar
    37    14    10   ar
    38    20    15   ar
    39     6     9    1
@<TRIPOS>MOLECULE
*****
 36 39 0 0 0
SMALL
GASTEIGER

@<TRIPOS>ATOM
      1 N          59.9385   89.1372    9.0538 N.ar    1  UNL1       -0.2459
      2 C          60.5807   90.1182    8.1182 C.ar    1  UNL1        0.1116
      3 C          60.0726   89.8400    6.7345 C.ar    1  UNL1        0.0908
      4 C          59.1165   88.6870    6.8149 C.ar    1  UNL1        0.1363
      5 N          59.0336   88.2527    8.2483 N.ar    1  UNL1       -0.1661
      6 N          60.4538   90.5840    5.4891 N.am    1  UNL1       -0.2762
      7 C          59.4595   91.4865    4.8207 C.2     1  UNL1        0.2754
      8 O          58.0839   91.6448    5.3976 O.2     1  UNL1       -0.2675
      9 H          61.3567   90.4801    5.1105 H       1  UNL1        0.1553
     10 C          59.8407   92.2306    3.5753 C.ar    1  UNL1        0.1872
     11 N          58.8919   92.8641    2.6014 N.ar    1  UNL1       -0.1361
     12 N          59.7025   93.4968    1.5093 N.ar    1  UNL1       -0.1391
     13 C          61.1523   93.2544    1.8083 C.ar    1  UNL1        0.1529
     14 S          61.2378   92.4718    3.0852 S.2     1  UNL1       -0.0394
     15 C          62.3129   93.7139    0.9765 C.ar    1  UNL1        0.1260
     16 C          62.0755   94.5558   -0.2421 C.ar    1  UNL1        0.1201
     17 N          63.2361   95.0153   -1.0739 N.ar    1  UNL1       -0.2390
     18 C          64.6341   94.6328   -0.6871 C.ar    1  UNL1        0.1195
     19 C          64.8714   93.7910    0.5314 C.ar    1  UNL1        0.1195
     20 N          63.7108   93.3315    1.3632 N.ar    1  UNL1       -0.2385
     21 C          59.4483   90.0009   11.4545 C.3     1  UNL1        0.0312
     22 C          60.1620   89.0551   10.5347 C.3     1  UNL1        0.1274
     23 C          61.0993   88.0272   11.0959 C.ar    1  UNL1        0.0038
     24 C          60.7682   86.5686   10.9820 C.ar    1  UNL1       -0.0025
     25 C          61.7055   85.5408   11.5432 C.ar    1  UNL1        0.0036
     26 C          62.9739   85.9715   12.2183 C.ar    1  UNL1        0.0714
     27 C          63.3050   87.4300   12.3322 C.ar    1  UNL1        0.0074
     28 C          62.3677   88.4579   11.7711 C.ar    1  UNL1        0.0692
     29 C          63.9112   84.9435   12.7795 C.3     1  UNL1        0.4186
     30 F          64.8484   83.9156   13.3407 F       1  UNL1       -0.1659
     31 F          64.1964   85.8409   13.9471 F       1  UNL1       -0.1659
     32 F          63.6259   84.0461   11.6120 F       1  UNL1       -0.1659
     33 C          62.6987   89.9165   11.8850 C.3     1  UNL1        0.4183
     34 F          63.0298   91.3750   11.9989 F       1  UNL1       -0.1659
     35 F          62.2309   89.9113   13.3101 F       1  UNL1       -0.1659
     36 F          63.1666   89.9216   10.4598 F       1  UNL1       -0.1659
@<TRIPOS>BOND
     1    22    21    1
     2    22    23    1
     3    23    24   ar
     4    24    25   ar
     5    25    26   ar
     6    26    29    1
     7    29    30    1
     8    29    31    1
     9    29    32    1
    10    26    27   ar
    11    27    28   ar
    12    28    33    1
    13    33    34    1
    14    33    35    1
    15    33    36    1
    16    22     1    1
    17     1     2   ar
    18     2     3   ar
    19     3     6    1
    20     6     7   am
    21     7     8    2
    22     7    10    1
    23    10    11   ar
    24    11    12   ar
    25    12    13   ar
    26    13    15    1
    27    15    16   ar
    28    16    17   ar
    29    17    18   ar
    30    18    19   ar
    31    19    20   ar
    32    13    14   ar
    33     3     4   ar
    34     4     5   ar
    35    28    23   ar
    36     5     1   ar
    37    14    10   ar
    38    20    15   ar
    39     6     9    1
@<TRIPOS>MOLECULE
*****
 36 39 0 0 0
SMALL
GASTEIGER

@<TRIPOS>ATOM
      1 N          59.6282   89.0308    7.4659 N.ar    1  UNL1       -0.2459
      2 C          60.6324   89.8347    6.6943 C.ar    1  UNL1        0.1116
      3 C          59.9030   90.5683    5.6081 C.ar    1  UNL1        0.0908
      4 C          58.4479   90.2178    5.7084 C.ar    1  UNL1        0.1363
      5 N          58.2782   89.2676    6.8566 N.ar    1  UNL1       -0.1661
      6 N          60.5202   91.4904    4.5988 N.am    1  UNL1       -0.2762
      7 C          59.6503   92.4019    3.7850 C.2     1  UNL1        0.2754
      8 O          58.1631   92.3913    3.9805 O.2     1  UNL1       -0.2675
      9 H          61.4963   91.4974    4.4705 H       1  UNL1        0.1553
     10 C          60.2675   93.3241    2.7758 C.ar    1  UNL1        0.1872
     11 N          60.1047   94.8144    2.7275 N.ar    1  UNL1       -0.1361
     12 N          60.8925   95.3292    1.5594 N.ar    1  UNL1       -0.1391
     13 C          61.5422   94.1570    0.8857 C.ar    1  UNL1        0.1529
     14 S          61.1559   92.9177    1.6375 S.2     1  UNL1       -0.0394
     15 C          62.4234   94.2140   -0.3268 C.ar    1  UNL1        0.1260
     16 C          63.6427   95.0878   -0.3274 C.ar    1  UNL1        0.1201
     17 N          64.5239   95.1448   -1.5399 N.ar    1  UNL1       -0.2390
     18 C          64.1859   94.3280   -2.7518 C.ar    1  UNL1        0.1195
     19 C          62.9667   93.4542   -2.7511 C.ar    1  UNL1        0.1195
     20 N          62.0855   93.3972   -1.5386 N.ar    1  UNL1       -0.2385
     21 C          59.2890   86.7892    8.7348 C.3     1  UNL1        0.0312
     22 C          59.9224   88.1456    8.6406 C.3     1  UNL1        0.1274
     23 C          60.8501   88.6169    9.7211 C.ar    1  UNL1        0.0038
     24 C          60.7377   90.0167   10.2482 C.ar    1  UNL1       -0.0025
     25 C          61.6654   90.4879   11.3287 C.ar    1  UNL1        0.0036
     26 C          62.7054   89.5593   11.8820 C.ar    1  UNL1        0.0714
     27 C          62.8177   88.1596   11.3549 C.ar    1  UNL1        0.0074
     28 C          61.8901   87.6883   10.2744 C.ar    1  UNL1        0.0692
     29 C          63.6330   90.0306   12.9625 C.3     1  UNL1        0.4186
     30 F          64.5606   90.5019   14.0429 F       1  UNL1       -0.1659
     31 F          63.9773   88.6074   13.2878 F       1  UNL1       -0.1659
     32 F          63.2887   91.4539   12.6373 F       1  UNL1       -0.1659
     33 C          62.0024   86.2885    9.7473 C.3     1  UNL1        0.4183
     34 F          62.1147   84.8887    9.2201 F       1  UNL1       -0.1659
     35 F          61.1981   85.7863   10.9095 F       1  UNL1       -0.1659
     36 F          62.8067   86.7907    8.5850 F       1  UNL1       -0.1659
@<TRIPOS>BOND
     1    22    21    1
     2    22    23    1
     3    23    24   ar
     4    24    25   ar
     5    25    26   ar
     6    26    29    1
     7    29    30    1
     8    29    31    1
     9    29    32    1
    10    26    27   ar
    11    27    28   ar
    12    28    33    1
    13    33    34    1
    14    33    35    1
    15    33    36    1
    16    22     1    1
    17     1     2   ar
    18     2     3   ar
    19     3     6    1
    20     6     7   am
    21     7     8    2
    22     7    10    1
    23    10    11   ar
    24    11    12   ar
    25    12    13   ar
    26    13    15    1
    27    15    16   ar
    28    16    17   ar
    29    17    18   ar
    30    18    19   ar
    31    19    20   ar
    32    13    14   ar
    33     3     4   ar
    34     4     5   ar
    35    28    23   ar
    36     5     1   ar
    37    14    10   ar
    38    20    15   ar
    39     6     9    1
@<TRIPOS>MOLECULE
*****
 36 39 0 0 0
SMALL
GASTEIGER

@<TRIPOS>ATOM
      1 N          63.6377   90.0890   12.8104 N.ar    1  UNL1       -0.2459
      2 C          63.9111   88.6394   13.0822 C.ar    1  UNL1        0.1116
      3 C          62.8978   87.8277   12.3309 C.ar    1  UNL1        0.0908
      4 C          61.9981   88.7757   11.5948 C.ar    1  UNL1        0.1363
      5 N          62.4555   90.1732   11.8911 N.ar    1  UNL1       -0.1661
      6 N          62.8011   86.3309   12.3181 N.am    1  UNL1       -0.2762
      7 C          63.2072   85.5427   13.5280 C.2     1  UNL1        0.2754
      8 O          63.7100   86.2514   14.7507 O.2     1  UNL1       -0.2675
      9 H          62.4711   85.8658   11.5156 H       1  UNL1        0.1553
     10 C          63.1105   84.0459   13.5151 C.ar    1  UNL1        0.1872
     11 N          63.0615   83.1552   14.7210 N.ar    1  UNL1       -0.1361
     12 N          62.9666   81.7358   14.2452 N.ar    1  UNL1       -0.1391
     13 C          62.9570   81.7493   12.7453 C.ar    1  UNL1        0.1529
     14 S          63.0459   83.1771   12.2940 S.2     1  UNL1       -0.0394
     15 C          62.8731   80.5463   11.8533 C.ar    1  UNL1        0.1260
     16 C          63.0761   80.6936   10.3744 C.ar    1  UNL1        0.1201
     17 N          62.9922   79.4906    9.4823 N.ar    1  UNL1       -0.2390
     18 C          62.7054   78.1402   10.0692 C.ar    1  UNL1        0.1195
     19 C          62.5024   77.9930   11.5481 C.ar    1  UNL1        0.1195
     20 N          62.5863   79.1960   12.4401 N.ar    1  UNL1       -0.2385
     21 C          64.4549   91.4877   14.8416 C.3     1  UNL1        0.0312
     22 C          64.4109   91.2504   13.3611 C.3     1  UNL1        0.1274
     23 C          65.1401   92.1745   12.4314 C.ar    1  UNL1        0.0038
     24 C          64.5962   92.4403   11.0590 C.ar    1  UNL1       -0.0025
     25 C          65.3253   93.3644   10.1293 C.ar    1  UNL1        0.0036
     26 C          66.5984   94.0227   10.5720 C.ar    1  UNL1        0.0714
     27 C          67.1423   93.7569   11.9444 C.ar    1  UNL1        0.0074
     28 C          66.4131   92.8328   12.8741 C.ar    1  UNL1        0.0692
     29 C          67.3276   94.9468    9.6423 C.3     1  UNL1        0.4186
     30 F          68.0567   95.8710    8.7126 F       1  UNL1       -0.1659
     31 F          67.6677   93.7861    8.7552 F       1  UNL1       -0.1659
     32 F          66.9874   96.1076   10.5293 F       1  UNL1       -0.1659
     33 C          66.9570   92.5670   14.2466 C.3     1  UNL1        0.4183
     34 F          67.5008   92.3012   15.6190 F       1  UNL1       -0.1659
     35 F          66.3478   93.8474   14.7359 F       1  UNL1       -0.1659
     36 F          67.5662   91.2866   13.7572 F       1  UNL1       -0.1659
@<TRIPOS>BOND
     1    22    21    1
     2    22    23    1
     3    23    24   ar
     4    24    25   ar
     5    25    26   ar
     6    26    29    1
     7    29    30    1
     8    29    31    1
     9    29    32    1
    10    26    27   ar
    11    27    28   ar
    12    28    33    1
    13    33    34    1
    14    33    35    1
    15    33    36    1
    16    22     1    1
    17     1     2   ar
    18     2     3   ar
    19     3     6    1
    20     6     7   am
    21     7     8    2
    22     7    10    1
    23    10    11   ar
    24    11    12   ar
    25    12    13   ar
    26    13    15    1
    27    15    16   ar
    28    16    17   ar
    29    17    18   ar
    30    18    19   ar
    31    19    20   ar
    32    13    14   ar
    33     3     4   ar
    34     4     5   ar
    35    28    23   ar
    36     5     1   ar
    37    14    10   ar
    38    20    15   ar
    39     6     9    1
