@<TRIPOS>MOLECULE
*****
 39 42 0 0 0
SMALL
GASTEIGER

@<TRIPOS>ATOM
      1 C          63.8310   89.6956   12.0703 C.ar    1  UNL1       -0.0223
      2 C          64.0450   88.9450   13.3512 C.ar    1  UNL1       -0.0030
      3 C          63.5216   87.5469   13.4976 C.ar    1  UNL1        0.0143
      4 C          62.7842   86.8994   12.3632 C.ar    1  UNL1        0.0502
      5 C          62.5703   87.6500   11.0823 C.ar    1  UNL1        0.0089
      6 C          63.0936   89.0481   10.9358 C.ar    1  UNL1       -0.0034
      7 C          65.9244   95.2879   11.4845 C.2     1  UNL1        0.2420
      8 O          66.6281   95.9494   12.6322 O.2     1  UNL1       -0.2734
      9 N          65.4011   93.8898   11.6310 N.am    1  UNL1       -0.2784
     10 C          64.6974   93.2284   10.4833 C.3     1  UNL1        0.0938
     11 C          64.1740   91.8303   10.6297 C.3     1  UNL1        0.0259
     12 C          64.3543   91.0937   11.9238 C.3     1  UNL1        0.0257
     13 C          65.0580   91.7551   13.0715 C.3     1  UNL1        0.0259
     14 C          65.5814   93.1532   12.9251 C.3     1  UNL1        0.0938
     15 C          65.7441   96.0245   10.1904 C.3     1  UNL1        0.1587
     16 C          66.3427   96.2563    7.6728 C.3     1  UNL1        0.0901
     17 N          66.6938   95.7875    9.0538 N.3     1  UNL1       -0.2616
     18 C          67.9946   95.0816    9.2981 C.3     1  UNL1        0.1046
     19 C          68.0969   93.6010    9.0804 C.3     1  UNL1        0.1544
     20 O          69.1870   92.8180    9.7501 O.3     1  UNL1       -0.3805
     21 H          70.0472   93.0939    9.3967 H       1  UNL1        0.2105
     22 C          61.8329   87.0026    9.9477 C.2     1  UNL1       -0.0253
     23 C          60.3789   87.3009    9.7308 C.2     1  UNL1       -0.0303
     24 C          59.6415   86.6535    8.5964 C.3     1  UNL1        0.0257
     25 C          60.3581   85.7077    7.6787 C.3     1  UNL1        0.0050
     26 C          61.8120   85.4093    7.8956 C.3     1  UNL1        0.0050
     27 C          62.5494   86.0568    9.0301 C.3     1  UNL1        0.0261
     28 N          62.2609   85.5013   12.5096 N.am    1  UNL1       -0.2779
     29 C          63.1491   84.4209   13.0513 C.2     1  UNL1        0.2837
     30 O          64.5609   84.7385   13.4467 O.2     1  UNL1       -0.2665
     31 H          61.3343   85.2929   12.2501 H       1  UNL1        0.1553
     32 C          62.6258   83.0228   13.1978 C.ar    1  UNL1        0.1959
     33 N          61.3114   82.6326   13.8061 N.ar    1  UNL1       -0.2123
     34 C          61.1982   81.1381   13.7459 C.ar    1  UNL1        0.1678
     35 C          62.4426   80.6046   13.1004 C.ar    1  UNL1        0.1036
     36 N          63.3250   81.7694   12.7616 N.ar    1  UNL1       -0.3319
     37 H          64.2080   81.7199   12.3289 H       1  UNL1        0.1676
     38 C          60.0433   80.3205   14.2438 C.1     1  UNL1        0.1214
     39 N          58.8885   79.5029   14.7417 N.1     1  UNL1       -0.1892
@<TRIPOS>BOND
     1    16    17    1
     2    17    18    1
     3    18    19    1
     4    19    20    1
     5    17    15    1
     6    15     7    1
     7     7     8    2
     8     7     9   am
     9     9    10    1
    10    10    11    1
    11    11    12    1
    12    12     1    1
    13     1     2   ar
    14     2     3   ar
    15     3     4   ar
    16     4    28    1
    17    28    29   am
    18    29    30    2
    19    29    32    1
    20    32    33   ar
    21    33    34   ar
    22    34    38    1
    23    38    39    3
    24    34    35   ar
    25    35    36   ar
    26     4     5   ar
    27     5    22    1
    28    22    23    2
    29    23    24    1
    30    24    25    1
    31    25    26    1
    32    26    27    1
    33     5     6   ar
    34    12    13    1
    35    13    14    1
    36    14     9    1
    37     6     1   ar
    38    36    32   ar
    39    27    22    1
    40    20    21    1
    41    28    31    1
    42    36    37    1
@<TRIPOS>MOLECULE
*****
 39 42 0 0 0
SMALL
GASTEIGER

@<TRIPOS>ATOM
      1 C          60.2179   89.1908    7.4785 C.ar    1  UNL1       -0.0223
      2 C          59.5627   87.8431    7.5438 C.ar    1  UNL1       -0.0030
      3 C          59.7925   86.9540    8.7298 C.ar    1  UNL1        0.0143
      4 C          60.6776   87.4127    9.8506 C.ar    1  UNL1        0.0502
      5 C          61.3328   88.7604    9.7854 C.ar    1  UNL1        0.0089
      6 C          61.1030   89.6494    8.5993 C.ar    1  UNL1       -0.0034
      7 C          59.2987   92.7471    2.7343 C.2     1  UNL1        0.2420
      8 O          57.9079   92.9587    2.2138 O.2     1  UNL1       -0.2734
      9 N          59.5285   91.8580    3.9203 N.am    1  UNL1       -0.2784
     10 C          60.9193   91.6464    4.4408 C.3     1  UNL1        0.0938
     11 C          61.1491   90.7573    5.6268 C.3     1  UNL1        0.0259
     12 C          59.9881   90.0799    6.2924 C.3     1  UNL1        0.0257
     13 C          58.5973   90.2914    5.7720 C.3     1  UNL1        0.0259
     14 C          58.3675   91.1805    4.5860 C.3     1  UNL1        0.0938
     15 C          60.4597   93.4245    2.0686 C.3     1  UNL1        0.1587
     16 C          60.4614   91.9340   -0.0594 C.3     1  UNL1        0.0901
     17 N          61.2085   92.7254    0.9729 N.3     1  UNL1       -0.2616
     18 C          62.7042   92.8176    0.9096 C.3     1  UNL1        0.1046
     19 C          63.4962   93.0348    2.1648 C.3     1  UNL1        0.1544
     20 O          63.9980   91.8581    2.9481 O.3     1  UNL1       -0.3805
     21 H          63.2449   91.3684    3.3140 H       1  UNL1        0.2105
     22 C          62.2179   89.2191   10.9063 C.2     1  UNL1       -0.0253
     23 C          62.5476   90.6749   11.0538 C.2     1  UNL1       -0.0303
     24 C          63.4327   91.1336   12.1746 C.3     1  UNL1        0.0257
     25 C          63.9881   90.1365   13.1479 C.3     1  UNL1        0.0050
     26 C          63.6584   88.6806   13.0004 C.3     1  UNL1        0.0050
     27 C          62.7733   88.2219   11.8795 C.3     1  UNL1        0.0261
     28 N          60.9074   86.5236   11.0367 N.am    1  UNL1       -0.2779
     29 C          61.9857   85.4817   10.9953 C.2     1  UNL1        0.2837
     30 O          62.8343   85.3289    9.7678 O.2     1  UNL1       -0.2665
     31 H          60.3505   86.6239   11.8423 H       1  UNL1        0.1553
     32 C          62.2155   84.5927   12.1814 C.ar    1  UNL1        0.1959
     33 N          62.4016   83.1047   12.1450 N.ar    1  UNL1       -0.2123
     34 C          62.6007   82.6279   13.5532 C.ar    1  UNL1        0.1678
     35 C          62.5376   83.8212   14.4599 C.ar    1  UNL1        0.1036
     36 N          62.2996   85.0355   13.6121 N.ar    1  UNL1       -0.3319
     37 H          62.2136   85.9607   13.9376 H       1  UNL1        0.1676
     38 C          62.8237   81.2073   13.9799 C.1     1  UNL1        0.1214
     39 N          63.0467   79.7867   14.4066 N.1     1  UNL1       -0.1892
@<TRIPOS>BOND
     1    16    17    1
     2    17    18    1
     3    18    19    1
     4    19    20    1
     5    17    15    1
     6    15     7    1
     7     7     8    2
     8     7     9   am
     9     9    10    1
    10    10    11    1
    11    11    12    1
    12    12     1    1
    13     1     2   ar
    14     2     3   ar
    15     3     4   ar
    16     4    28    1
    17    28    29   am
    18    29    30    2
    19    29    32    1
    20    32    33   ar
    21    33    34   ar
    22    34    38    1
    23    38    39    3
    24    34    35   ar
    25    35    36   ar
    26     4     5   ar
    27     5    22    1
    28    22    23    2
    29    23    24    1
    30    24    25    1
    31    25    26    1
    32    26    27    1
    33     5     6   ar
    34    12    13    1
    35    13    14    1
    36    14     9    1
    37     6     1   ar
    38    36    32   ar
    39    27    22    1
    40    20    21    1
    41    28    31    1
    42    36    37    1
