@<TRIPOS>MOLECULE
*****
 20 21 0 0 0
SMALL
GASTEIGER

@<TRIPOS>ATOM
      1 C          60.3048   88.0280   10.2453 C.3     1  UNL1        0.0000
      2 B          61.2501   86.8637   10.2143 B       1  UNL1        0.0000
      3 C          61.9078   86.4658    8.9263 C.3     1  UNL1        0.0000
      4 C          62.8531   85.3016    8.8952 C.2     1  UNL1        0.0000
      5 C          63.1407   84.5353   10.1522 C.ar    1  UNL1        0.0000
      6 C          64.0861   83.3711   10.1212 C.ar    1  UNL1        0.0000
      7 C          64.3737   82.6048   11.3782 C.ar    1  UNL1        0.0000
      8 C          63.7160   83.0028   12.6663 C.ar    1  UNL1        0.0000
      9 C          62.7707   84.1670   12.6973 C.ar    1  UNL1        0.0000
     10 C          62.4831   84.9333   11.4402 C.ar    1  UNL1        0.0000
     11 N          61.5377   86.0975   11.4713 N.2     1  UNL1        0.0000
     12 O          62.1130   84.5649   13.9853 O.3     1  UNL1        0.0000
     13 C          62.8444   84.3968   15.2842 C.3     1  UNL1        0.0000
     14 C          63.9009   85.3839   15.6833 C.3     1  UNL1        0.0000
     15 O          65.3282   85.1588   15.2804 O.3     1  UNL1        0.0000
     16 H          65.8772   85.8844   15.6163 H       1  UNL1        0.0000
     17 C          63.5302   86.5960   16.4852 C.3     1  UNL1        0.0000
     18 N          63.6187   87.9600   15.8673 N.3     1  UNL1        0.0000
     19 C          63.0878   89.1534   16.6048 C.3     1  UNL1        0.0000
     20 C          64.2381   88.1305   14.5118 C.3     1  UNL1        0.0000
@<TRIPOS>BOND
     1     1     2    1
     2     2     3    1
     3     3     4    1
     4     4     5    2
     5     5     6   ar
     6     6     7   ar
     7     7     8   ar
     8     8     9   ar
     9     9    12    1
    10    12    13    1
    11    13    14    1
    12    14    15    1
    13    14    17    1
    14    17    18    1
    15    18    19    1
    16    18    20    1
    17     9    10   ar
    18    10    11    2
    19    11     2    1
    20    10     5   ar
    21    15    16    1
@<TRIPOS>MOLECULE
*****
 20 21 0 0 0
SMALL
GASTEIGER

@<TRIPOS>ATOM
      1 C          64.6625   90.0409   14.1663 C.3     1  UNL1        0.0000
      2 B          63.8070   89.7386   12.9719 B       1  UNL1        0.0000
      3 C          63.4038   90.8422   12.0394 C.3     1  UNL1        0.0000
      4 C          62.5483   90.5399   10.8450 C.2     1  UNL1        0.0000
      5 C          62.0959   89.1339   10.5830 C.ar    1  UNL1        0.0000
      6 C          61.2404   88.8316    9.3886 C.ar    1  UNL1        0.0000
      7 C          60.7880   87.4257    9.1266 C.ar    1  UNL1        0.0000
      8 C          61.1912   86.3220   10.0591 C.ar    1  UNL1        0.0000
      9 C          62.0467   86.6243   11.2535 C.ar    1  UNL1        0.0000
     10 C          62.4991   88.0303   11.5155 C.ar    1  UNL1        0.0000
     11 N          63.3546   88.3327   12.7099 N.2     1  UNL1        0.0000
     12 O          62.4499   85.5207   12.1859 O.3     1  UNL1        0.0000
     13 C          62.7700   84.1595   11.6430 C.3     1  UNL1        0.0000
     14 C          63.9641   83.4097   12.1546 C.3     1  UNL1        0.0000
     15 O          65.0558   83.0031   11.2097 O.3     1  UNL1        0.0000
     16 H          65.7475   82.5307   11.6989 H       1  UNL1        0.0000
     17 C          64.0666   83.0666   13.6112 C.3     1  UNL1        0.0000
     18 N          62.8241   82.9502   14.4436 N.3     1  UNL1        0.0000
     19 C          62.4770   84.0275   15.4278 C.3     1  UNL1        0.0000
     20 C          61.9287   81.7564   14.2916 C.3     1  UNL1        0.0000
@<TRIPOS>BOND
     1     1     2    1
     2     2     3    1
     3     3     4    1
     4     4     5    2
     5     5     6   ar
     6     6     7   ar
     7     7     8   ar
     8     8     9   ar
     9     9    12    1
    10    12    13    1
    11    13    14    1
    12    14    15    1
    13    14    17    1
    14    17    18    1
    15    18    19    1
    16    18    20    1
    17     9    10   ar
    18    10    11    2
    19    11     2    1
    20    10     5   ar
    21    15    16    1
@<TRIPOS>MOLECULE
*****
 20 21 0 0 0
SMALL
GASTEIGER

@<TRIPOS>ATOM
      1 C          62.9425   83.3322   14.8972 C.3     1  UNL1        0.0000
      2 B          63.0702   83.6117   13.4290 B       1  UNL1        0.0000
      3 C          63.9261   82.7295   12.5692 C.3     1  UNL1        0.0000
      4 C          64.0538   83.0089   11.1010 C.2     1  UNL1        0.0000
      5 C          63.3255   84.1705   10.4926 C.ar    1  UNL1        0.0000
      6 C          63.4532   84.4500    9.0244 C.ar    1  UNL1        0.0000
      7 C          62.7250   85.6116    8.4159 C.ar    1  UNL1        0.0000
      8 C          61.8690   86.4938    9.2756 C.ar    1  UNL1        0.0000
      9 C          61.7414   86.2144   10.7438 C.ar    1  UNL1        0.0000
     10 C          62.4696   85.0527   11.3523 C.ar    1  UNL1        0.0000
     11 N          62.3420   84.7733   12.8205 N.2     1  UNL1        0.0000
     12 O          60.8855   87.0966   11.6035 O.3     1  UNL1        0.0000
     13 C          60.0265   88.1526   10.9734 C.3     1  UNL1        0.0000
     14 C          60.4213   89.5965   11.0694 C.3     1  UNL1        0.0000
     15 O          59.6120   90.5411   11.9077 O.3     1  UNL1        0.0000
     16 H          60.0004   91.4287   11.8610 H       1  UNL1        0.0000
     17 C          61.6254   90.0957   10.3272 C.3     1  UNL1        0.0000
     18 N          62.8672   90.4726   11.0796 N.3     1  UNL1        0.0000
     19 C          63.2193   89.7591   12.3511 C.3     1  UNL1        0.0000
     20 C          63.7568   91.5629   10.5602 C.3     1  UNL1        0.0000
@<TRIPOS>BOND
     1     1     2    1
     2     2     3    1
     3     3     4    1
     4     4     5    2
     5     5     6   ar
     6     6     7   ar
     7     7     8   ar
     8     8     9   ar
     9     9    12    1
    10    12    13    1
    11    13    14    1
    12    14    15    1
    13    14    17    1
    14    17    18    1
    15    18    19    1
    16    18    20    1
    17     9    10   ar
    18    10    11    2
    19    11     2    1
    20    10     5   ar
    21    15    16    1
@<TRIPOS>MOLECULE
*****
 20 21 0 0 0
SMALL
GASTEIGER

@<TRIPOS>ATOM
      1 C          60.6662   87.8441   10.4141 C.3     1  UNL1        0.0000
      2 B          61.6764   88.8349   10.9120 B       1  UNL1        0.0000
      3 C          62.0099   90.0439   10.0892 C.3     1  UNL1        0.0000
      4 C          63.0201   91.0347   10.5871 C.2     1  UNL1        0.0000
      5 C          63.6968   90.8164   11.9078 C.ar    1  UNL1        0.0000
      6 C          64.7070   91.8071   12.4057 C.ar    1  UNL1        0.0000
      7 C          65.3838   91.5888   13.7264 C.ar    1  UNL1        0.0000
      8 C          65.0504   90.3797   14.5493 C.ar    1  UNL1        0.0000
      9 C          64.0402   89.3890   14.0514 C.ar    1  UNL1        0.0000
     10 C          63.3634   89.6073   12.7306 C.ar    1  UNL1        0.0000
     11 N          62.3532   88.6166   12.2327 N.2     1  UNL1        0.0000
     12 O          63.7068   88.1800   14.8741 O.3     1  UNL1        0.0000
     13 C          64.5374   86.9369   14.7515 C.3     1  UNL1        0.0000
     14 C          63.9768   85.7247   14.0687 C.3     1  UNL1        0.0000
     15 O          63.1012   85.8818   12.8609 O.3     1  UNL1        0.0000
     16 H          62.8261   85.0069   12.5450 H       1  UNL1        0.0000
     17 C          64.2918   84.3553   14.5937 C.3     1  UNL1        0.0000
     18 N          63.6397   83.1499   13.9838 N.3     1  UNL1        0.0000
     19 C          62.3742   82.6024   14.5743 C.3     1  UNL1        0.0000
     20 C          64.2533   82.4921   12.7835 C.3     1  UNL1        0.0000
@<TRIPOS>BOND
     1     1     2    1
     2     2     3    1
     3     3     4    1
     4     4     5    2
     5     5     6   ar
     6     6     7   ar
     7     7     8   ar
     8     8     9   ar
     9     9    12    1
    10    12    13    1
    11    13    14    1
    12    14    15    1
    13    14    17    1
    14    17    18    1
    15    18    19    1
    16    18    20    1
    17     9    10   ar
    18    10    11    2
    19    11     2    1
    20    10     5   ar
    21    15    16    1
@<TRIPOS>MOLECULE
*****
 20 21 0 0 0
SMALL
GASTEIGER

@<TRIPOS>ATOM
      1 C          62.8297   83.9483   15.1641 C.3     1  UNL1        0.0000
      2 B          62.9858   84.0173   13.6738 B       1  UNL1        0.0000
      3 C          63.6843   82.9106   12.9409 C.3     1  UNL1        0.0000
      4 C          63.8404   82.9795   11.4506 C.2     1  UNL1        0.0000
      5 C          63.2979   84.1551   10.6933 C.ar    1  UNL1        0.0000
      6 C          63.4540   84.2240    9.2030 C.ar    1  UNL1        0.0000
      7 C          62.9115   85.3996    8.4456 C.ar    1  UNL1        0.0000
      8 C          62.2129   86.5064    9.1785 C.ar    1  UNL1        0.0000
      9 C          62.0569   86.4375   10.6688 C.ar    1  UNL1        0.0000
     10 C          62.5994   85.2618   11.4262 C.ar    1  UNL1        0.0000
     11 N          62.4433   85.1929   12.9164 N.2     1  UNL1        0.0000
     12 O          61.3583   87.5441   11.4017 O.3     1  UNL1        0.0000
     13 C          61.9356   88.9287   11.3964 C.3     1  UNL1        0.0000
     14 C          63.0387   89.2850   12.3482 C.3     1  UNL1        0.0000
     15 O          63.7230   88.2100   13.1395 O.3     1  UNL1        0.0000
     16 H          64.4062   88.6075   13.7017 H       1  UNL1        0.0000
     17 C          63.4575   90.7163   12.5089 C.3     1  UNL1        0.0000
     18 N          64.2715   91.1306   13.6988 N.3     1  UNL1        0.0000
     19 C          65.5545   91.8831   13.5046 C.3     1  UNL1        0.0000
     20 C          63.8025   90.7923   15.0828 C.3     1  UNL1        0.0000
@<TRIPOS>BOND
     1     1     2    1
     2     2     3    1
     3     3     4    1
     4     4     5    2
     5     5     6   ar
     6     6     7   ar
     7     7     8   ar
     8     8     9   ar
     9     9    12    1
    10    12    13    1
    11    13    14    1
    12    14    15    1
    13    14    17    1
    14    17    18    1
    15    18    19    1
    16    18    20    1
    17     9    10   ar
    18    10    11    2
    19    11     2    1
    20    10     5   ar
    21    15    16    1
@<TRIPOS>MOLECULE
*****
 20 21 0 0 0
SMALL
GASTEIGER

@<TRIPOS>ATOM
      1 C          62.7560   83.8669   15.3026 C.3     1  UNL1        0.0000
      2 B          62.8962   83.9191   13.8101 B       1  UNL1        0.0000
      3 C          63.3785   82.7133   13.0595 C.3     1  UNL1        0.0000
      4 C          63.5186   82.7655   11.5670 C.2     1  UNL1        0.0000
      5 C          63.1764   84.0234   10.8250 C.ar    1  UNL1        0.0000
      6 C          63.3165   84.0755    9.3325 C.ar    1  UNL1        0.0000
      7 C          62.9743   85.3334    8.5906 C.ar    1  UNL1        0.0000
      8 C          62.4919   86.5393    9.3412 C.ar    1  UNL1        0.0000
      9 C          62.3518   86.4871   10.8337 C.ar    1  UNL1        0.0000
     10 C          62.6941   85.2291   11.5756 C.ar    1  UNL1        0.0000
     11 N          62.5539   85.1770   13.0682 N.2     1  UNL1        0.0000
     12 O          61.8694   87.6929   11.5843 O.3     1  UNL1        0.0000
     13 C          62.8542   88.7051   12.0901 C.3     1  UNL1        0.0000
     14 C          62.6203   90.1664   11.8456 C.3     1  UNL1        0.0000
     15 O          63.1076   91.1802   12.8378 O.3     1  UNL1        0.0000
     16 H          62.8764   92.0707   12.5303 H       1  UNL1        0.0000
     17 C          61.8990   90.6138   10.6089 C.3     1  UNL1        0.0000
     18 N          60.4754   90.2001   10.3798 N.3     1  UNL1        0.0000
     19 C          59.4112   90.6013   11.3577 C.3     1  UNL1        0.0000
     20 C          60.1162   89.3853    9.1727 C.3     1  UNL1        0.0000
@<TRIPOS>BOND
     1     1     2    1
     2     2     3    1
     3     3     4    1
     4     4     5    2
     5     5     6   ar
     6     6     7   ar
     7     7     8   ar
     8     8     9   ar
     9     9    12    1
    10    12    13    1
    11    13    14    1
    12    14    15    1
    13    14    17    1
    14    17    18    1
    15    18    19    1
    16    18    20    1
    17     9    10   ar
    18    10    11    2
    19    11     2    1
    20    10     5   ar
    21    15    16    1
@<TRIPOS>MOLECULE
*****
 20 21 0 0 0
SMALL
GASTEIGER

@<TRIPOS>ATOM
      1 C          62.6843   84.8259   12.3216 C.3     1  UNL1        0.0000
      2 B          63.2088   86.0705   12.9741 B       1  UNL1        0.0000
      3 C          63.9264   85.9830   14.2884 C.3     1  UNL1        0.0000
      4 C          64.4509   87.2276   14.9409 C.2     1  UNL1        0.0000
      5 C          64.2580   88.5598   14.2790 C.ar    1  UNL1        0.0000
      6 C          64.7825   89.8044   14.9315 C.ar    1  UNL1        0.0000
      7 C          64.5896   91.1366   14.2697 C.ar    1  UNL1        0.0000
      8 C          63.8720   91.2242   12.9553 C.ar    1  UNL1        0.0000
      9 C          63.3474   89.9795   12.3028 C.ar    1  UNL1        0.0000
     10 C          63.5404   88.6473   12.9647 C.ar    1  UNL1        0.0000
     11 N          63.0159   87.4027   12.3123 N.2     1  UNL1        0.0000
     12 O          62.6299   90.0670   10.9885 O.3     1  UNL1        0.0000
     13 C          61.1370   90.2103   10.9571 C.3     1  UNL1        0.0000
     14 C          60.2762   89.0236   10.6397 C.3     1  UNL1        0.0000
     15 O          59.7834   88.1374   11.7451 O.3     1  UNL1        0.0000
     16 H          59.2447   87.4228   11.3708 H       1  UNL1        0.0000
     17 C          59.9083   88.7231    9.2170 C.3     1  UNL1        0.0000
     18 N          60.0770   87.3343    8.6759 N.3     1  UNL1        0.0000
     19 C          61.3146   86.5497    8.9964 C.3     1  UNL1        0.0000
     20 C          59.0081   86.7300    7.8143 C.3     1  UNL1        0.0000
@<TRIPOS>BOND
     1     1     2    1
     2     2     3    1
     3     3     4    1
     4     4     5    2
     5     5     6   ar
     6     6     7   ar
     7     7     8   ar
     8     8     9   ar
     9     9    12    1
    10    12    13    1
    11    13    14    1
    12    14    15    1
    13    14    17    1
    14    17    18    1
    15    18    19    1
    16    18    20    1
    17     9    10   ar
    18    10    11    2
    19    11     2    1
    20    10     5   ar
    21    15    16    1
@<TRIPOS>MOLECULE
*****
 20 21 0 0 0
SMALL
GASTEIGER

@<TRIPOS>ATOM
      1 C          64.2703   87.9025   14.9223 C.3     1  UNL1        0.0000
      2 B          63.7789   86.4904   14.8014 B       1  UNL1        0.0000
      3 C          63.4618   85.6985   16.0352 C.3     1  UNL1        0.0000
      4 C          62.9704   84.2865   15.9144 C.2     1  UNL1        0.0000
      5 C          62.7960   83.6664   14.5598 C.ar    1  UNL1        0.0000
      6 C          62.3045   82.2543   14.4390 C.ar    1  UNL1        0.0000
      7 C          62.1301   81.6342   13.0844 C.ar    1  UNL1        0.0000
      8 C          62.4472   82.4261   11.8505 C.ar    1  UNL1        0.0000
      9 C          62.9386   83.8382   11.9714 C.ar    1  UNL1        0.0000
     10 C          63.1130   84.4583   13.3260 C.ar    1  UNL1        0.0000
     11 N          63.6045   85.8703   13.4469 N.2     1  UNL1        0.0000
     12 O          63.2557   84.6301   10.7376 O.3     1  UNL1        0.0000
     13 C          62.1590   85.3377    9.9981 C.3     1  UNL1        0.0000
     14 C          61.6247   86.6402   10.5155 C.3     1  UNL1        0.0000
     15 O          60.8734   86.6802   11.8132 O.3     1  UNL1        0.0000
     16 H          60.5997   87.5918   12.0004 H       1  UNL1        0.0000
     17 C          61.8417   87.9028    9.7353 C.3     1  UNL1        0.0000
     18 N          60.6715   88.7630    9.3600 N.3     1  UNL1        0.0000
     19 C          60.3565   89.9917   10.1606 C.3     1  UNL1        0.0000
     20 C          59.8164   88.3945    8.1839 C.3     1  UNL1        0.0000
@<TRIPOS>BOND
     1     1     2    1
     2     2     3    1
     3     3     4    1
     4     4     5    2
     5     5     6   ar
     6     6     7   ar
     7     7     8   ar
     8     8     9   ar
     9     9    12    1
    10    12    13    1
    11    13    14    1
    12    14    15    1
    13    14    17    1
    14    17    18    1
    15    18    19    1
    16    18    20    1
    17     9    10   ar
    18    10    11    2
    19    11     2    1
    20    10     5   ar
    21    15    16    1
@<TRIPOS>MOLECULE
*****
 20 21 0 0 0
SMALL
GASTEIGER

@<TRIPOS>ATOM
      1 C          61.0348   87.0659    9.4072 C.3     1  UNL1        0.0000
      2 B          61.7105   88.0946   10.2647 B       1  UNL1        0.0000
      3 C          61.6108   89.5488    9.9108 C.3     1  UNL1        0.0000
      4 C          62.2865   90.5774   10.7682 C.2     1  UNL1        0.0000
      5 C          63.0620   90.1519   11.9796 C.ar    1  UNL1        0.0000
      6 C          63.7377   91.1805   12.8371 C.ar    1  UNL1        0.0000
      7 C          64.5131   90.7550   14.0485 C.ar    1  UNL1        0.0000
      8 C          64.6129   89.3007   14.4025 C.ar    1  UNL1        0.0000
      9 C          63.9372   88.2721   13.5450 C.ar    1  UNL1        0.0000
     10 C          63.1617   88.6977   12.3336 C.ar    1  UNL1        0.0000
     11 N          62.4860   87.6690   11.4761 N.2     1  UNL1        0.0000
     12 O          64.0369   86.8179   13.8989 O.3     1  UNL1        0.0000
     13 C          64.0065   86.3921   15.3370 C.3     1  UNL1        0.0000
     14 C          63.2217   85.1804   15.7440 C.3     1  UNL1        0.0000
     15 O          62.0481   85.3222   16.6673 O.3     1  UNL1        0.0000
     16 H          61.6557   84.4497   16.8278 H       1  UNL1        0.0000
     17 C          63.6105   83.8268   15.2276 C.3     1  UNL1        0.0000
     18 N          62.8139   83.1854   14.1303 N.3     1  UNL1        0.0000
     19 C          62.8408   83.7647   12.7469 C.3     1  UNL1        0.0000
     20 C          61.9903   81.9648   14.4164 C.3     1  UNL1        0.0000
@<TRIPOS>BOND
     1     1     2    1
     2     2     3    1
     3     3     4    1
     4     4     5    2
     5     5     6   ar
     6     6     7   ar
     7     7     8   ar
     8     8     9   ar
     9     9    12    1
    10    12    13    1
    11    13    14    1
    12    14    15    1
    13    14    17    1
    14    17    18    1
    15    18    19    1
    16    18    20    1
    17     9    10   ar
    18    10    11    2
    19    11     2    1
    20    10     5   ar
    21    15    16    1
