@<TRIPOS>MOLECULE
*****
 26 28 0 0 0
SMALL
GASTEIGER

@<TRIPOS>ATOM
      1 C          64.9969   92.0769   12.7547 C.ar    1  UNL1        0.1453
      2 C          65.6961   91.7820   14.0487 C.ar    1  UNL1        0.0376
      3 C          65.3422   90.5506   14.8287 C.ar    1  UNL1        0.0076
      4 C          64.2892   89.6141   14.3148 C.ar    1  UNL1        0.0536
      5 C          63.5901   89.9090   13.0209 C.ar    1  UNL1        0.0076
      6 C          63.9439   91.1404   12.2409 C.ar    1  UNL1        0.0376
      7 C          63.9354   88.3827   15.0948 C.2     1  UNL1        0.2461
      8 O          63.2115   88.5057   16.4028 O.2     1  UNL1       -0.2701
      9 N          64.3054   87.0283   14.5668 N.am    1  UNL1       -0.2969
     10 H          64.7805   86.9476   13.7084 H       1  UNL1        0.1501
     11 C          63.9515   85.7969   15.3469 C.3     1  UNL1        0.1167
     12 C          63.7104   84.5002   14.6325 C.ar    1  UNL1        0.0005
     13 C          64.5533   84.1278   13.4490 C.ar    1  UNL1        0.0181
     14 C          64.3121   82.8310   12.7347 C.ar    1  UNL1        0.0986
     15 N          63.2279   81.9067   13.2039 N.ar    1  UNL1       -0.2423
     16 C          62.3850   82.2791   14.3874 C.ar    1  UNL1        0.0986
     17 C          62.6261   83.5758   15.1017 C.ar    1  UNL1        0.0181
     18 O          65.3508   93.3083   11.9747 O.3     1  UNL1       -0.4528
     19 C          66.6451   94.4157   10.0130 C.ar    1  UNL1        0.1029
     20 C          67.7280   94.3615    8.9765 C.ar    1  UNL1        0.0134
     21 C          68.5996   93.1457    8.8653 C.ar    1  UNL1        0.0009
     22 C          68.3882   91.9842    9.7905 C.ar    1  UNL1        0.0032
     23 C          67.3053   92.0384   10.8269 C.ar    1  UNL1        0.0382
     24 C          66.4337   93.2541   10.9382 C.ar    1  UNL1        0.1548
     25 N          64.9021   96.8472   10.2355 N.1     1  UNL1       -0.1907
     26 C          65.7736   95.6314   10.1242 C.1     1  UNL1        0.1035
@<TRIPOS>BOND
     1    25    26    3
     2    26    19    1
     3    19    20   ar
     4    20    21   ar
     5    21    22   ar
     6    22    23   ar
     7    23    24   ar
     8    24    18    1
     9    18     1    1
    10     1     2   ar
    11     2     3   ar
    12     3     4   ar
    13     4     7    1
    14     7     8    2
    15     7     9   am
    16     9    11    1
    17    11    12    1
    18    12    13   ar
    19    13    14   ar
    20    14    15   ar
    21    15    16   ar
    22    16    17   ar
    23     4     5   ar
    24     5     6   ar
    25    24    19   ar
    26     6     1   ar
    27    17    12   ar
    28     9    10    1
@<TRIPOS>MOLECULE
*****
 26 28 0 0 0
SMALL
GASTEIGER

@<TRIPOS>ATOM
      1 C          64.2565   91.7716   11.5447 C.ar    1  UNL1        0.1453
      2 C          64.2628   90.9127   12.7745 C.ar    1  UNL1        0.0376
      3 C          63.5242   89.6071   12.7813 C.ar    1  UNL1        0.0076
      4 C          62.7792   89.1605   11.5584 C.ar    1  UNL1        0.0536
      5 C          62.7729   90.0194   10.3287 C.ar    1  UNL1        0.0076
      6 C          63.5115   91.3249   10.3218 C.ar    1  UNL1        0.0376
      7 C          62.0407   87.8550   11.5652 C.2     1  UNL1        0.2461
      8 O          60.5510   87.8351   11.3906 O.2     1  UNL1       -0.2701
      9 N          62.7917   86.5693   11.7466 N.am    1  UNL1       -0.2969
     10 H          63.7695   86.5823   11.8612 H       1  UNL1        0.1501
     11 C          62.0531   85.2638   11.7534 C.3     1  UNL1        0.1167
     12 C          62.5587   84.1204   12.5822 C.ar    1  UNL1        0.0005
     13 C          62.8404   82.7948   11.9392 C.ar    1  UNL1        0.0181
     14 C          63.3460   81.6514   12.7681 C.ar    1  UNL1        0.0986
     15 N          63.5700   81.8336   14.2400 N.ar    1  UNL1       -0.2423
     16 C          63.2883   83.1591   14.8831 C.ar    1  UNL1        0.0986
     17 C          62.7827   84.3025   14.0543 C.ar    1  UNL1        0.0181
     18 O          64.9950   93.0771   11.5379 O.3     1  UNL1       -0.4528
     19 C          66.5111   94.5483   10.0255 C.ar    1  UNL1        0.1029
     20 C          67.7429   94.7087    9.1848 C.ar    1  UNL1        0.0134
     21 C          68.6906   93.5583    9.0157 C.ar    1  UNL1        0.0009
     22 C          68.4064   92.2475    9.6874 C.ar    1  UNL1        0.0032
     23 C          67.1746   92.0872   10.5281 C.ar    1  UNL1        0.0382
     24 C          66.2269   93.2375   10.6972 C.ar    1  UNL1        0.1548
     25 N          64.6157   96.8490   10.3636 N.1     1  UNL1       -0.1907
     26 C          65.5634   95.6986   10.1946 C.1     1  UNL1        0.1035
@<TRIPOS>BOND
     1    25    26    3
     2    26    19    1
     3    19    20   ar
     4    20    21   ar
     5    21    22   ar
     6    22    23   ar
     7    23    24   ar
     8    24    18    1
     9    18     1    1
    10     1     2   ar
    11     2     3   ar
    12     3     4   ar
    13     4     7    1
    14     7     8    2
    15     7     9   am
    16     9    11    1
    17    11    12    1
    18    12    13   ar
    19    13    14   ar
    20    14    15   ar
    21    15    16   ar
    22    16    17   ar
    23     4     5   ar
    24     5     6   ar
    25    24    19   ar
    26     6     1   ar
    27    17    12   ar
    28     9    10    1
@<TRIPOS>MOLECULE
*****
 26 28 0 0 0
SMALL
GASTEIGER

@<TRIPOS>ATOM
      1 C          64.2425   90.4279   15.1694 C.ar    1  UNL1        0.1453
      2 C          64.6503   89.2796   14.2945 C.ar    1  UNL1        0.0376
      3 C          64.2639   87.8789   14.6668 C.ar    1  UNL1        0.0076
      4 C          63.4697   87.6263   15.9140 C.ar    1  UNL1        0.0536
      5 C          63.0619   88.7745   16.7888 C.ar    1  UNL1        0.0076
      6 C          63.4483   90.1753   16.4166 C.ar    1  UNL1        0.0376
      7 C          63.0833   86.2256   16.2863 C.2     1  UNL1        0.2461
      8 O          62.6755   85.9093   17.6947 O.2     1  UNL1       -0.2701
      9 N          63.1047   85.1411   15.2501 N.am    1  UNL1       -0.2969
     10 H          63.3723   85.3487   14.3257 H       1  UNL1        0.1501
     11 C          62.7183   83.7404   15.6224 C.3     1  UNL1        0.1167
     12 C          62.7494   82.6540   14.5887 C.ar    1  UNL1        0.0005
     13 C          63.8721   82.5954   13.5957 C.ar    1  UNL1        0.0181
     14 C          63.9032   81.5089   12.5620 C.ar    1  UNL1        0.0986
     15 N          62.8116   80.4810   12.5212 N.ar    1  UNL1       -0.2423
     16 C          61.6888   80.5396   13.5142 C.ar    1  UNL1        0.0986
     17 C          61.6577   81.6260   14.5479 C.ar    1  UNL1        0.0181
     18 O          64.6289   91.8286   14.7971 O.3     1  UNL1       -0.4528
     19 C          66.8328   92.2888   13.5006 C.ar    1  UNL1        0.1029
     20 C          67.5499   92.5509   12.2095 C.ar    1  UNL1        0.0134
     21 C          66.7801   92.6150   10.9236 C.ar    1  UNL1        0.0009
     22 C          65.2933   92.4170   10.9289 C.ar    1  UNL1        0.0032
     23 C          64.5762   92.1548   12.2201 C.ar    1  UNL1        0.0382
     24 C          65.3460   92.0907   13.5059 C.ar    1  UNL1        0.1548
     25 N          68.3724   92.1606   16.0722 N.1     1  UNL1       -0.1907
     26 C          67.6026   92.2247   14.7864 C.1     1  UNL1        0.1035
@<TRIPOS>BOND
     1    25    26    3
     2    26    19    1
     3    19    20   ar
     4    20    21   ar
     5    21    22   ar
     6    22    23   ar
     7    23    24   ar
     8    24    18    1
     9    18     1    1
    10     1     2   ar
    11     2     3   ar
    12     3     4   ar
    13     4     7    1
    14     7     8    2
    15     7     9   am
    16     9    11    1
    17    11    12    1
    18    12    13   ar
    19    13    14   ar
    20    14    15   ar
    21    15    16   ar
    22    16    17   ar
    23     4     5   ar
    24     5     6   ar
    25    24    19   ar
    26     6     1   ar
    27    17    12   ar
    28     9    10    1
@<TRIPOS>MOLECULE
*****
 26 28 0 0 0
SMALL
GASTEIGER

@<TRIPOS>ATOM
      1 C          62.5813   87.6883   12.0773 C.ar    1  UNL1        0.1453
      2 C          62.3770   88.8645   11.1690 C.ar    1  UNL1        0.0376
      3 C          63.0804   90.1594   11.4490 C.ar    1  UNL1        0.0076
      4 C          63.9881   90.2781   12.6373 C.ar    1  UNL1        0.0536
      5 C          64.1925   89.1020   13.5455 C.ar    1  UNL1        0.0076
      6 C          63.4891   87.8071   13.2656 C.ar    1  UNL1        0.0376
      7 C          64.6916   91.5730   12.9172 C.2     1  UNL1        0.2461
      8 O          64.8713   92.0383   14.3319 O.2     1  UNL1       -0.2701
      9 N          65.2152   92.4027   11.7825 N.am    1  UNL1       -0.2969
     10 H          65.0972   92.0974   10.8540 H       1  UNL1        0.1501
     11 C          65.9186   93.6976   12.0625 C.3     1  UNL1        0.1167
     12 C          66.4397   94.5286   10.9277 C.ar    1  UNL1        0.0005
     13 C          66.3315   96.0238   10.9815 C.ar    1  UNL1        0.0181
     14 C          66.8526   96.8548    9.8467 C.ar    1  UNL1        0.0986
     15 N          67.4819   96.1907    8.6580 N.ar    1  UNL1       -0.2423
     16 C          67.5901   94.6956    8.6042 C.ar    1  UNL1        0.0986
     17 C          67.0690   93.8645    9.7390 C.ar    1  UNL1        0.0181
     18 O          61.8779   86.3934   11.7974 O.3     1  UNL1       -0.4528
     19 C          63.0814   84.2017   12.5033 C.ar    1  UNL1        0.1029
     20 C          63.8739   82.9806   12.1418 C.ar    1  UNL1        0.0134
     21 C          64.2555   82.7299   10.7130 C.ar    1  UNL1        0.0009
     22 C          63.8446   83.7004    9.6456 C.ar    1  UNL1        0.0032
     23 C          63.0521   84.9215   10.0071 C.ar    1  UNL1        0.0382
     24 C          62.6705   85.1722   11.4359 C.ar    1  UNL1        0.1548
     25 N          62.3182   84.7031   15.3609 N.1     1  UNL1       -0.1907
     26 C          62.6998   84.4524   13.9321 C.1     1  UNL1        0.1035
@<TRIPOS>BOND
     1    25    26    3
     2    26    19    1
     3    19    20   ar
     4    20    21   ar
     5    21    22   ar
     6    22    23   ar
     7    23    24   ar
     8    24    18    1
     9    18     1    1
    10     1     2   ar
    11     2     3   ar
    12     3     4   ar
    13     4     7    1
    14     7     8    2
    15     7     9   am
    16     9    11    1
    17    11    12    1
    18    12    13   ar
    19    13    14   ar
    20    14    15   ar
    21    15    16   ar
    22    16    17   ar
    23     4     5   ar
    24     5     6   ar
    25    24    19   ar
    26     6     1   ar
    27    17    12   ar
    28     9    10    1
@<TRIPOS>MOLECULE
*****
 26 28 0 0 0
SMALL
GASTEIGER

@<TRIPOS>ATOM
      1 C          64.0696   90.9904   12.7923 C.ar    1  UNL1        0.1453
      2 C          64.2515   89.8015   13.6889 C.ar    1  UNL1        0.0376
      3 C          63.6630   88.4761   13.3056 C.ar    1  UNL1        0.0076
      4 C          62.8926   88.3394   12.0258 C.ar    1  UNL1        0.0536
      5 C          62.7107   89.5282   11.1293 C.ar    1  UNL1        0.0076
      6 C          63.2992   90.8537   11.5126 C.ar    1  UNL1        0.0376
      7 C          62.3042   87.0140   11.6426 C.2     1  UNL1        0.2461
      8 O          60.8715   86.9273   11.2068 O.2     1  UNL1       -0.2701
      9 N          63.1484   85.7752   11.6951 N.am    1  UNL1       -0.2969
     10 H          64.0887   85.8321   11.9811 H       1  UNL1        0.1501
     11 C          62.5599   84.4498   11.3118 C.3     1  UNL1        0.1167
     12 C          62.6434   83.2900   12.2594 C.ar    1  UNL1        0.0005
     13 C          62.5830   83.5250   13.7396 C.ar    1  UNL1        0.0181
     14 C          62.6665   82.3651   14.6872 C.ar    1  UNL1        0.0986
     15 N          62.8104   80.9703   14.1545 N.ar    1  UNL1       -0.2423
     16 C          62.8709   80.7353   12.6742 C.ar    1  UNL1        0.0986
     17 C          62.7874   81.8951   11.7267 C.ar    1  UNL1        0.0181
     18 O          64.6580   92.3158   13.1756 O.3     1  UNL1       -0.4528
     19 C          67.2521   92.3525   13.3153 C.ar    1  UNL1        0.1029
     20 C          68.5083   92.4070   14.1331 C.ar    1  UNL1        0.0134
     21 C          68.4268   92.4794   15.6291 C.ar    1  UNL1        0.0009
     22 C          67.0890   92.4972   16.3073 C.ar    1  UNL1        0.0032
     23 C          65.8328   92.4427   15.4895 C.ar    1  UNL1        0.0382
     24 C          65.9143   92.3703   13.9934 C.ar    1  UNL1        0.1548
     25 N          67.4153   92.2077   10.3232 N.1     1  UNL1       -0.1907
     26 C          67.3337   92.2801   11.8192 C.1     1  UNL1        0.1035
@<TRIPOS>BOND
     1    25    26    3
     2    26    19    1
     3    19    20   ar
     4    20    21   ar
     5    21    22   ar
     6    22    23   ar
     7    23    24   ar
     8    24    18    1
     9    18     1    1
    10     1     2   ar
    11     2     3   ar
    12     3     4   ar
    13     4     7    1
    14     7     8    2
    15     7     9   am
    16     9    11    1
    17    11    12    1
    18    12    13   ar
    19    13    14   ar
    20    14    15   ar
    21    15    16   ar
    22    16    17   ar
    23     4     5   ar
    24     5     6   ar
    25    24    19   ar
    26     6     1   ar
    27    17    12   ar
    28     9    10    1
@<TRIPOS>MOLECULE
*****
 26 28 0 0 0
SMALL
GASTEIGER

@<TRIPOS>ATOM
      1 C          64.1370   90.9513   12.7463 C.ar    1  UNL1        0.1453
      2 C          64.2897   89.7679   13.6553 C.ar    1  UNL1        0.0376
      3 C          63.6702   88.4530   13.2851 C.ar    1  UNL1        0.0076
      4 C          62.8979   88.3214   12.0059 C.ar    1  UNL1        0.0536
      5 C          62.7452   89.5047   11.0969 C.ar    1  UNL1        0.0076
      6 C          63.3648   90.8197   11.4671 C.ar    1  UNL1        0.0376
      7 C          62.2784   87.0065   11.6358 C.2     1  UNL1        0.2461
      8 O          60.8466   86.9504   11.1920 O.2     1  UNL1       -0.2701
      9 N          63.0906   85.7475   11.7093 N.am    1  UNL1       -0.2969
     10 H          64.0303   85.7842   12.0005 H       1  UNL1        0.1501
     11 C          62.4711   84.4326   11.3391 C.3     1  UNL1        0.1167
     12 C          62.6091   83.2538   12.2564 C.ar    1  UNL1        0.0005
     13 C          62.5763   83.4523   13.7428 C.ar    1  UNL1        0.0181
     14 C          62.7143   82.2734   14.6601 C.ar    1  UNL1        0.0986
     15 N          62.8852   80.8962   14.0909 N.ar    1  UNL1       -0.2423
     16 C          62.9180   80.6977   12.6045 C.ar    1  UNL1        0.0986
     17 C          62.7799   81.8765   11.6872 C.ar    1  UNL1        0.0181
     18 O          64.7566   92.2662   13.1165 O.3     1  UNL1       -0.4528
     19 C          66.0375   92.3468   15.3754 C.ar    1  UNL1        0.1029
     20 C          67.3304   92.3792   16.1352 C.ar    1  UNL1        0.0134
     21 C          68.6354   92.3636   15.3958 C.ar    1  UNL1        0.0009
     22 C          68.6475   92.3156   13.8966 C.ar    1  UNL1        0.0032
     23 C          67.3546   92.2831   13.1369 C.ar    1  UNL1        0.0382
     24 C          66.0496   92.2987   13.8763 C.ar    1  UNL1        0.1548
     25 N          63.4275   92.3779   16.8543 N.1     1  UNL1       -0.1907
     26 C          64.7325   92.3624   16.1149 C.1     1  UNL1        0.1035
@<TRIPOS>BOND
     1    25    26    3
     2    26    19    1
     3    19    20   ar
     4    20    21   ar
     5    21    22   ar
     6    22    23   ar
     7    23    24   ar
     8    24    18    1
     9    18     1    1
    10     1     2   ar
    11     2     3   ar
    12     3     4   ar
    13     4     7    1
    14     7     8    2
    15     7     9   am
    16     9    11    1
    17    11    12    1
    18    12    13   ar
    19    13    14   ar
    20    14    15   ar
    21    15    16   ar
    22    16    17   ar
    23     4     5   ar
    24     5     6   ar
    25    24    19   ar
    26     6     1   ar
    27    17    12   ar
    28     9    10    1
@<TRIPOS>MOLECULE
*****
 26 28 0 0 0
SMALL
GASTEIGER

@<TRIPOS>ATOM
      1 C          61.7270   87.9558   10.8847 C.ar    1  UNL1        0.1453
      2 C          61.5219   89.3242   10.3053 C.ar    1  UNL1        0.0376
      3 C          62.3122   90.4866   10.8290 C.ar    1  UNL1        0.0076
      4 C          63.3076   90.2807   11.9320 C.ar    1  UNL1        0.0536
      5 C          63.5128   88.9124   12.5114 C.ar    1  UNL1        0.0076
      6 C          62.7224   87.7500   11.9877 C.ar    1  UNL1        0.0376
      7 C          64.0979   91.4431   12.4557 C.2     1  UNL1        0.2461
      8 O          64.0122   91.8158   13.9061 O.2     1  UNL1       -0.2701
      9 N          64.9740   92.2328   11.5289 N.am    1  UNL1       -0.2969
     10 H          65.0303   91.9882   10.5769 H       1  UNL1        0.1501
     11 C          65.7643   93.3952   12.0525 C.3     1  UNL1        0.1167
     12 C          66.3532   94.3921   11.0990 C.ar    1  UNL1        0.0005
     13 C          66.1218   95.8590   11.3099 C.ar    1  UNL1        0.0181
     14 C          66.7108   96.8559   10.3563 C.ar    1  UNL1        0.0986
     15 N          67.5312   96.3859    9.1919 N.ar    1  UNL1       -0.2423
     16 C          67.7627   94.9189    8.9810 C.ar    1  UNL1        0.0986
     17 C          67.1737   93.9220    9.9345 C.ar    1  UNL1        0.0181
     18 O          60.9367   86.7935   10.3610 O.3     1  UNL1       -0.4528
     19 C          60.7095   86.0973    7.8683 C.ar    1  UNL1        0.1029
     20 C          61.2095   85.3226    6.6852 C.ar    1  UNL1        0.0134
     21 C          62.4366   84.4693    6.8116 C.ar    1  UNL1        0.0009
     22 C          63.1637   84.3906    8.1212 C.ar    1  UNL1        0.0032
     23 C          62.6638   85.1653    9.3043 C.ar    1  UNL1        0.0382
     24 C          61.4367   86.0187    9.1778 C.ar    1  UNL1        0.1548
     25 N          58.2553   87.8041    7.6153 N.1     1  UNL1       -0.1907
     26 C          59.4824   86.9507    7.7418 C.1     1  UNL1        0.1035
@<TRIPOS>BOND
     1    25    26    3
     2    26    19    1
     3    19    20   ar
     4    20    21   ar
     5    21    22   ar
     6    22    23   ar
     7    23    24   ar
     8    24    18    1
     9    18     1    1
    10     1     2   ar
    11     2     3   ar
    12     3     4   ar
    13     4     7    1
    14     7     8    2
    15     7     9   am
    16     9    11    1
    17    11    12    1
    18    12    13   ar
    19    13    14   ar
    20    14    15   ar
    21    15    16   ar
    22    16    17   ar
    23     4     5   ar
    24     5     6   ar
    25    24    19   ar
    26     6     1   ar
    27    17    12   ar
    28     9    10    1
@<TRIPOS>MOLECULE
*****
 26 28 0 0 0
SMALL
GASTEIGER

@<TRIPOS>ATOM
      1 C          62.2225   87.0703   11.5570 C.ar    1  UNL1        0.1453
      2 C          61.9339   87.9253   10.3587 C.ar    1  UNL1        0.0376
      3 C          62.4954   89.3136   10.2752 C.ar    1  UNL1        0.0076
      4 C          63.3455   89.8471   11.3900 C.ar    1  UNL1        0.0536
      5 C          63.6341   88.9923   12.5883 C.ar    1  UNL1        0.0076
      6 C          63.0726   87.6038   12.6718 C.ar    1  UNL1        0.0376
      7 C          63.9071   91.2355   11.3065 C.2     1  UNL1        0.2461
      8 O          63.5249   92.1318   10.1661 O.2     1  UNL1       -0.2701
      9 N          64.8509   91.7277   12.3635 N.am    1  UNL1       -0.2969
     10 H          65.1018   91.1394   13.1120 H       1  UNL1        0.1501
     11 C          65.4124   93.1160   12.2800 C.3     1  UNL1        0.1167
     12 C          66.4066   93.4599   11.2108 C.ar    1  UNL1        0.0005
     13 C          67.3275   92.4039   10.6753 C.ar    1  UNL1        0.0181
     14 C          68.3217   92.7478    9.6060 C.ar    1  UNL1        0.0986
     15 N          68.3950   94.1476    9.0722 N.ar    1  UNL1       -0.2423
     16 C          67.4740   95.2037    9.6076 C.ar    1  UNL1        0.0986
     17 C          66.4799   94.8598   10.6769 C.ar    1  UNL1        0.0181
     18 O          61.6609   85.6819   11.6405 O.3     1  UNL1       -0.4528
     19 C          63.3355   83.9540   10.6607 C.ar    1  UNL1        0.1029
     20 C          64.2542   82.7835   10.8504 C.ar    1  UNL1        0.0134
     21 C          64.4170   82.1705   12.2097 C.ar    1  UNL1        0.0009
     22 C          63.6612   82.7280   13.3793 C.ar    1  UNL1        0.0032
     23 C          62.7425   83.8984   13.1895 C.ar    1  UNL1        0.0382
     24 C          62.5797   84.5114   11.8302 C.ar    1  UNL1        0.1548
     25 N          63.0099   85.1800    7.9421 N.1     1  UNL1       -0.1907
     26 C          63.1727   84.5670    9.3014 C.1     1  UNL1        0.1035
@<TRIPOS>BOND
     1    25    26    3
     2    26    19    1
     3    19    20   ar
     4    20    21   ar
     5    21    22   ar
     6    22    23   ar
     7    23    24   ar
     8    24    18    1
     9    18     1    1
    10     1     2   ar
    11     2     3   ar
    12     3     4   ar
    13     4     7    1
    14     7     8    2
    15     7     9   am
    16     9    11    1
    17    11    12    1
    18    12    13   ar
    19    13    14   ar
    20    14    15   ar
    21    15    16   ar
    22    16    17   ar
    23     4     5   ar
    24     5     6   ar
    25    24    19   ar
    26     6     1   ar
    27    17    12   ar
    28     9    10    1
@<TRIPOS>MOLECULE
*****
 26 28 0 0 0
SMALL
GASTEIGER

@<TRIPOS>ATOM
      1 C          64.6861   92.1082   12.4128 C.ar    1  UNL1        0.1453
      2 C          64.1684   91.0480   13.3392 C.ar    1  UNL1        0.0376
      3 C          63.2793   89.9608   12.8126 C.ar    1  UNL1        0.0076
      4 C          62.9078   89.9337   11.3595 C.ar    1  UNL1        0.0536
      5 C          63.4255   90.9937   10.4331 C.ar    1  UNL1        0.0076
      6 C          64.3147   92.0810   10.9597 C.ar    1  UNL1        0.0376
      7 C          62.0187   88.8465   10.8329 C.2     1  UNL1        0.2461
      8 O          61.0060   89.1547    9.7702 O.2     1  UNL1       -0.2701
      9 N          62.1423   87.4509   11.3690 N.am    1  UNL1       -0.2969
     10 H          62.8070   87.2486   12.0665 H       1  UNL1        0.1501
     11 C          61.2532   86.3637   10.8424 C.3     1  UNL1        0.1167
     12 C          61.4038   85.8916    9.4267 C.ar    1  UNL1        0.0005
     13 C          60.2656   86.0410    8.4612 C.ar    1  UNL1        0.0181
     14 C          60.4162   85.5689    7.0453 C.ar    1  UNL1        0.0986
     15 N          61.7050   84.9475    6.5951 N.ar    1  UNL1       -0.2423
     16 C          62.8432   84.7981    7.5606 C.ar    1  UNL1        0.0986
     17 C          62.6926   85.2702    8.9763 C.ar    1  UNL1        0.0181
     18 O          65.5753   93.1954   12.9394 O.3     1  UNL1       -0.4528
     19 C          67.9650   92.3555   13.5172 C.ar    1  UNL1        0.1029
     20 C          69.0185   92.0353   14.5358 C.ar    1  UNL1        0.0134
     21 C          68.7357   92.2348   15.9954 C.ar    1  UNL1        0.0009
     22 C          67.3995   92.7545   16.4362 C.ar    1  UNL1        0.0032
     23 C          66.3460   93.0746   15.4176 C.ar    1  UNL1        0.0382
     24 C          66.6288   92.8752   13.9581 C.ar    1  UNL1        0.1548
     25 N          68.5306   91.9566   10.5981 N.1     1  UNL1       -0.1907
     26 C          68.2478   92.1560   12.0576 C.1     1  UNL1        0.1035
@<TRIPOS>BOND
     1    25    26    3
     2    26    19    1
     3    19    20   ar
     4    20    21   ar
     5    21    22   ar
     6    22    23   ar
     7    23    24   ar
     8    24    18    1
     9    18     1    1
    10     1     2   ar
    11     2     3   ar
    12     3     4   ar
    13     4     7    1
    14     7     8    2
    15     7     9   am
    16     9    11    1
    17    11    12    1
    18    12    13   ar
    19    13    14   ar
    20    14    15   ar
    21    15    16   ar
    22    16    17   ar
    23     4     5   ar
    24     5     6   ar
    25    24    19   ar
    26     6     1   ar
    27    17    12   ar
    28     9    10    1
