@<TRIPOS>MOLECULE
*****
 31 33 0 0 0
SMALL
GASTEIGER

@<TRIPOS>ATOM
      1 C          63.4139   90.0029   12.2230 C.ar    1  UNL1        0.0942
      2 C          63.6436   90.9051   11.0469 C.ar    1  UNL1        0.1078
      3 N          64.5611   92.0849   11.1744 N.ar    1  UNL1       -0.2119
      4 C          65.2491   92.3625   12.4782 C.ar    1  UNL1        0.2207
      5 N          65.0194   91.4603   13.6544 N.ar    1  UNL1       -0.2094
      6 C          64.1018   90.2805   13.5267 C.ar    1  UNL1        0.1613
      7 O          61.0100   89.0237   12.1134 O.2     1  UNL1       -0.2700
      8 C          62.4964   88.8232   12.0954 C.2     1  UNL1        0.2488
      9 N          63.0653   87.4429   11.9499 N.am    1  UNL1       -0.3008
     10 H          64.0409   87.3112   11.9381 H       1  UNL1        0.1497
     11 C          62.1478   86.2631   11.8223 C.3     1  UNL1        0.0898
     12 C          62.6854   84.8730   11.9919 C.3     1  UNL1        0.0246
     13 C          63.1447   84.0953   10.7945 C.3     1  UNL1        0.0338
     14 C          63.6823   82.7052   10.9642 C.3     1  UNL1        0.1422
     15 O          63.7605   82.0930   12.3313 O.3     1  UNL1       -0.3538
     16 C          63.3011   82.8708   13.5288 C.3     1  UNL1        0.1422
     17 C          62.7635   84.2608   13.3591 C.3     1  UNL1        0.0338
     18 C          63.8722   89.3783   14.7029 C.3     1  UNL1        0.4351
     19 F          63.6425   88.4761   15.8790 F       1  UNL1       -0.1644
     20 F          65.0101   88.5083   14.2577 F       1  UNL1       -0.1644
     21 F          62.7342   90.2483   15.1480 F       1  UNL1       -0.1644
     22 N          66.1666   93.5422   12.6058 N.pl3   1  UNL1       -0.2808
     23 H          66.5508   93.7745   13.4819 H       1  UNL1        0.1551
     24 C          66.4988   94.3680   11.3984 C.ar    1  UNL1        0.0783
     25 C          66.0690   95.8034   11.3301 C.ar    1  UNL1        0.0178
     26 C          66.4013   96.6292   10.1228 C.ar    1  UNL1        0.0128
     27 C          67.1633   96.0195    8.9837 C.ar    1  UNL1        0.0600
     28 CL         67.4955   96.8453    7.7763 Cl      1  UNL1       -0.0822
     29 C          67.5931   94.5841    9.0520 C.ar    1  UNL1        0.0423
     30 C          67.2609   93.7583   10.2593 C.ar    1  UNL1        0.1543
     31 F          67.6907   92.3228   10.3276 F       1  UNL1       -0.2028
@<TRIPOS>BOND
     1     7     8    2
     2     8     9   am
     3     9    11    1
     4    11    12    1
     5    12    13    1
     6    13    14    1
     7    14    15    1
     8    15    16    1
     9    16    17    1
    10     8     1    1
    11     1     2   ar
    12     2     3   ar
    13     3     4   ar
    14     4    22    1
    15    22    24    1
    16    24    25   ar
    17    25    26   ar
    18    26    27   ar
    19    27    28    1
    20    27    29   ar
    21    29    30   ar
    22    30    31    1
    23     4     5   ar
    24     5     6   ar
    25     6    18    1
    26    18    19    1
    27    18    20    1
    28    18    21    1
    29    17    12    1
    30     6     1   ar
    31    30    24   ar
    32     9    10    1
    33    22    23    1
@<TRIPOS>MOLECULE
*****
 31 33 0 0 0
SMALL
GASTEIGER

@<TRIPOS>ATOM
      1 C          63.4768   90.4062   11.8948 C.ar    1  UNL1        0.0942
      2 C          62.9491   90.3779   10.4909 C.ar    1  UNL1        0.1078
      3 N          62.0646   89.2516   10.0447 N.ar    1  UNL1       -0.2119
      4 C          61.7078   88.1536   11.0024 C.ar    1  UNL1        0.2207
      5 N          62.2354   88.1818   12.4062 N.ar    1  UNL1       -0.2094
      6 C          63.1199   89.3082   12.8524 C.ar    1  UNL1        0.1613
      7 O          64.3201   91.9991   13.7660 O.2     1  UNL1       -0.2700
      8 C          64.3612   91.5325   12.3410 C.2     1  UNL1        0.2488
      9 N          65.2869   92.1922   11.3622 N.am    1  UNL1       -0.3008
     10 H          65.3139   91.8860   10.4270 H       1  UNL1        0.1497
     11 C          66.1714   93.3185   11.8085 C.3     1  UNL1        0.0898
     12 C          66.5912   94.3753   10.8302 C.3     1  UNL1        0.0246
     13 C          67.4427   94.0096    9.6507 C.3     1  UNL1        0.0338
     14 C          67.8625   95.0664    8.6724 C.3     1  UNL1        0.1422
     15 O          67.4309   96.4888    8.8737 O.3     1  UNL1       -0.3538
     16 C          66.5794   96.8544   10.0532 C.3     1  UNL1        0.1422
     17 C          66.1596   95.7976   11.0314 C.3     1  UNL1        0.0338
     18 C          63.6476   89.3365   14.2562 C.3     1  UNL1        0.4351
     19 F          64.1753   89.3648   15.6601 F       1  UNL1       -0.1644
     20 F          64.8698   88.5889   13.8119 F       1  UNL1       -0.1644
     21 F          62.4254   90.0841   14.7005 F       1  UNL1       -0.1644
     22 N          60.8233   87.0273   10.5561 N.pl3   1  UNL1       -0.2808
     23 H          60.0483   86.7636   11.1031 H       1  UNL1        0.1551
     24 C          61.1195   86.3028    9.2766 C.ar    1  UNL1        0.0783
     25 C          62.4752   85.7017    9.0516 C.ar    1  UNL1        0.0178
     26 C          62.7715   84.9771    7.7720 C.ar    1  UNL1        0.0128
     27 C          61.7120   84.8537    6.7174 C.ar    1  UNL1        0.0600
     28 CL         62.0082   84.1292    5.4378 Cl      1  UNL1       -0.0822
     29 C          60.3562   85.4548    6.9424 C.ar    1  UNL1        0.0423
     30 C          60.0600   86.1793    8.2220 C.ar    1  UNL1        0.1543
     31 F          58.7042   86.7804    8.4469 F       1  UNL1       -0.2028
@<TRIPOS>BOND
     1     7     8    2
     2     8     9   am
     3     9    11    1
     4    11    12    1
     5    12    13    1
     6    13    14    1
     7    14    15    1
     8    15    16    1
     9    16    17    1
    10     8     1    1
    11     1     2   ar
    12     2     3   ar
    13     3     4   ar
    14     4    22    1
    15    22    24    1
    16    24    25   ar
    17    25    26   ar
    18    26    27   ar
    19    27    28    1
    20    27    29   ar
    21    29    30   ar
    22    30    31    1
    23     4     5   ar
    24     5     6   ar
    25     6    18    1
    26    18    19    1
    27    18    20    1
    28    18    21    1
    29    17    12    1
    30     6     1   ar
    31    30    24   ar
    32     9    10    1
    33    22    23    1
@<TRIPOS>MOLECULE
*****
 31 33 0 0 0
SMALL
GASTEIGER

@<TRIPOS>ATOM
      1 C          63.2009   89.0071   12.1932 C.ar    1  UNL1        0.0942
      2 C          63.9644   88.7020   13.4477 C.ar    1  UNL1        0.1078
      3 N          63.9750   87.3069   13.9987 N.ar    1  UNL1       -0.2119
      4 C          63.2221   86.2169   13.2951 C.ar    1  UNL1        0.2207
      5 N          62.4585   86.5220   12.0406 N.ar    1  UNL1       -0.2094
      6 C          62.4480   87.9171   11.4896 C.ar    1  UNL1        0.1613
      7 O          61.8923   91.0442   11.2510 O.2     1  UNL1       -0.2700
      8 C          63.1903   90.4021   11.6422 C.2     1  UNL1        0.2488
      9 N          64.4777   91.1552   11.4823 N.am    1  UNL1       -0.3008
     10 H          65.3296   90.7338   11.7390 H       1  UNL1        0.1497
     11 C          64.4671   92.5503   10.9313 C.3     1  UNL1        0.0898
     12 C          65.7499   93.1946   10.4960 C.3     1  UNL1        0.0246
     13 C          66.9149   92.3437   10.0853 C.3     1  UNL1        0.0338
     14 C          68.1976   92.9879    9.6500 C.3     1  UNL1        0.1422
     15 O          68.3153   94.4831    9.6254 O.3     1  UNL1       -0.3538
     16 C          67.1503   95.3340   10.0361 C.3     1  UNL1        0.1422
     17 C          65.8676   94.6897   10.4714 C.3     1  UNL1        0.0338
     18 C          61.6844   88.2222   10.2350 C.3     1  UNL1        0.4351
     19 F          60.9209   88.5273    8.9805 F       1  UNL1       -0.1644
     20 F          60.4358   88.4188   11.0427 F       1  UNL1       -0.1644
     21 F          62.9330   88.0257    9.4273 F       1  UNL1       -0.1644
     22 N          63.2327   84.8218   13.8461 N.pl3   1  UNL1       -0.2808
     23 H          63.2615   84.6772   14.8195 H       1  UNL1        0.1551
     24 C          63.1994   83.6470   12.9141 C.ar    1  UNL1        0.0783
     25 C          63.9119   83.7150   11.5959 C.ar    1  UNL1        0.0178
     26 C          63.8785   82.5402   10.6638 C.ar    1  UNL1        0.0128
     27 C          63.1327   81.2974   11.0500 C.ar    1  UNL1        0.0600
     28 CL         63.0994   80.1226   10.1179 Cl      1  UNL1       -0.0822
     29 C          62.4202   81.2294   12.3681 C.ar    1  UNL1        0.0423
     30 C          62.4535   82.4042   13.3002 C.ar    1  UNL1        0.1543
     31 F          61.7410   82.3362   14.6185 F       1  UNL1       -0.2028
@<TRIPOS>BOND
     1     7     8    2
     2     8     9   am
     3     9    11    1
     4    11    12    1
     5    12    13    1
     6    13    14    1
     7    14    15    1
     8    15    16    1
     9    16    17    1
    10     8     1    1
    11     1     2   ar
    12     2     3   ar
    13     3     4   ar
    14     4    22    1
    15    22    24    1
    16    24    25   ar
    17    25    26   ar
    18    26    27   ar
    19    27    28    1
    20    27    29   ar
    21    29    30   ar
    22    30    31    1
    23     4     5   ar
    24     5     6   ar
    25     6    18    1
    26    18    19    1
    27    18    20    1
    28    18    21    1
    29    17    12    1
    30     6     1   ar
    31    30    24   ar
    32     9    10    1
    33    22    23    1
@<TRIPOS>MOLECULE
*****
 31 33 0 0 0
SMALL
GASTEIGER

@<TRIPOS>ATOM
      1 C          60.5153   87.6376    9.0530 C.ar    1  UNL1        0.0942
      2 C          61.2261   86.3587    8.7229 C.ar    1  UNL1        0.1078
      3 N          62.1313   85.7209    9.7347 N.ar    1  UNL1       -0.2119
      4 C          62.3257   86.3622   11.0768 C.ar    1  UNL1        0.2207
      5 N          61.6149   87.6412   11.4069 N.ar    1  UNL1       -0.2094
      6 C          60.7097   88.2789   10.3950 C.ar    1  UNL1        0.1613
      7 O          58.2523   87.6945    7.7779 O.2     1  UNL1       -0.2700
      8 C          59.6100   88.2754    8.0412 C.2     1  UNL1        0.2488
      9 N          60.0625   89.4940    7.2926 N.am    1  UNL1       -0.3008
     10 H          60.9536   89.8752    7.4654 H       1  UNL1        0.1497
     11 C          59.1573   90.1317    6.2808 C.3     1  UNL1        0.0898
     12 C          59.7360   90.9688    5.1787 C.3     1  UNL1        0.0246
     13 C          61.1910   90.8523    4.8334 C.3     1  UNL1        0.0338
     14 C          61.7697   91.6894    3.7314 C.3     1  UNL1        0.1422
     15 O          60.8933   92.6430    2.9748 O.3     1  UNL1       -0.3538
     16 C          59.4383   92.7596    3.3201 C.3     1  UNL1        0.1422
     17 C          58.8596   91.9225    4.4221 C.3     1  UNL1        0.0338
     18 C          59.9989   89.5579   10.7252 C.3     1  UNL1        0.4351
     19 F          59.2881   90.8368   11.0553 F       1  UNL1       -0.1644
     20 F          61.0760   90.3361   10.0294 F       1  UNL1       -0.1644
     21 F          58.9217   88.7796   11.4209 F       1  UNL1       -0.1644
     22 N          63.2310   85.7245   12.0886 N.pl3   1  UNL1       -0.2808
     23 H          63.9508   86.2507   12.5060 H       1  UNL1        0.1551
     24 C          63.0395   84.2850   12.4645 C.ar    1  UNL1        0.0783
     25 C          62.4007   83.9306   13.7746 C.ar    1  UNL1        0.0178
     26 C          62.2092   82.4911   14.1505 C.ar    1  UNL1        0.0128
     27 C          62.6565   81.4061   13.2164 C.ar    1  UNL1        0.0600
     28 CL         62.4651   79.9667   13.5923 Cl      1  UNL1       -0.0822
     29 C          63.2953   81.7606   11.9063 C.ar    1  UNL1        0.0423
     30 C          63.4868   83.2000   11.5304 C.ar    1  UNL1        0.1543
     31 F          64.1256   83.5544   10.2203 F       1  UNL1       -0.2028
@<TRIPOS>BOND
     1     7     8    2
     2     8     9   am
     3     9    11    1
     4    11    12    1
     5    12    13    1
     6    13    14    1
     7    14    15    1
     8    15    16    1
     9    16    17    1
    10     8     1    1
    11     1     2   ar
    12     2     3   ar
    13     3     4   ar
    14     4    22    1
    15    22    24    1
    16    24    25   ar
    17    25    26   ar
    18    26    27   ar
    19    27    28    1
    20    27    29   ar
    21    29    30   ar
    22    30    31    1
    23     4     5   ar
    24     5     6   ar
    25     6    18    1
    26    18    19    1
    27    18    20    1
    28    18    21    1
    29    17    12    1
    30     6     1   ar
    31    30    24   ar
    32     9    10    1
    33    22    23    1
@<TRIPOS>MOLECULE
*****
 31 33 0 0 0
SMALL
GASTEIGER

@<TRIPOS>ATOM
      1 C          63.3110   90.5620   11.8668 C.ar    1  UNL1        0.0942
      2 C          62.7428   90.6985   10.4853 C.ar    1  UNL1        0.1078
      3 N          61.8219   89.6446    9.9456 N.ar    1  UNL1       -0.2119
      4 C          61.4692   88.4542   10.7875 C.ar    1  UNL1        0.2207
      5 N          62.0374   88.3178   12.1690 N.ar    1  UNL1       -0.2094
      6 C          62.9583   89.3717   12.7087 C.ar    1  UNL1        0.1613
      7 O          64.2137   91.9505   13.8686 O.2     1  UNL1       -0.2700
      8 C          64.2318   91.6159   12.4065 C.2     1  UNL1        0.2488
      9 N          65.1708   92.3353   11.4841 N.am    1  UNL1       -0.3008
     10 H          65.1827   92.1158   10.5244 H       1  UNL1        0.1497
     11 C          66.0917   93.3892   12.0237 C.3     1  UNL1        0.0898
     12 C          66.9554   93.0926   13.2138 C.3     1  UNL1        0.0246
     13 C          66.8189   93.9124   14.4625 C.3     1  UNL1        0.0338
     14 C          67.6826   93.6158   15.6525 C.3     1  UNL1        0.1422
     15 O          68.6827   92.4995   15.5937 O.3     1  UNL1       -0.3538
     16 C          68.8191   91.6797   14.3450 C.3     1  UNL1        0.1422
     17 C          67.9555   91.9763   13.1551 C.3     1  UNL1        0.0338
     18 C          63.5264   89.2353   14.0902 C.3     1  UNL1        0.4351
     19 F          64.0946   89.0989   15.4717 F       1  UNL1       -0.1644
     20 F          64.6619   88.4222   13.5429 F       1  UNL1       -0.1644
     21 F          62.3910   90.0484   14.6374 F       1  UNL1       -0.1644
     22 N          60.5483   87.4003   10.2478 N.pl3   1  UNL1       -0.2808
     23 H          59.6642   87.2622   10.6581 H       1  UNL1        0.1551
     24 C          60.9746   86.5569    9.0829 C.ar    1  UNL1        0.0783
     25 C          62.3859   86.0564    8.9960 C.ar    1  UNL1        0.0178
     26 C          62.8122   85.2129    7.8311 C.ar    1  UNL1        0.0128
     27 C          61.8271   84.8700    6.7532 C.ar    1  UNL1        0.0600
     28 CL         62.2534   84.0266    5.5883 Cl      1  UNL1       -0.0822
     29 C          60.4158   85.3705    6.8401 C.ar    1  UNL1        0.0423
     30 C          59.9896   86.2140    8.0050 C.ar    1  UNL1        0.1543
     31 F          58.5781   86.7145    8.0919 F       1  UNL1       -0.2028
@<TRIPOS>BOND
     1     7     8    2
     2     8     9   am
     3     9    11    1
     4    11    12    1
     5    12    13    1
     6    13    14    1
     7    14    15    1
     8    15    16    1
     9    16    17    1
    10     8     1    1
    11     1     2   ar
    12     2     3   ar
    13     3     4   ar
    14     4    22    1
    15    22    24    1
    16    24    25   ar
    17    25    26   ar
    18    26    27   ar
    19    27    28    1
    20    27    29   ar
    21    29    30   ar
    22    30    31    1
    23     4     5   ar
    24     5     6   ar
    25     6    18    1
    26    18    19    1
    27    18    20    1
    28    18    21    1
    29    17    12    1
    30     6     1   ar
    31    30    24   ar
    32     9    10    1
    33    22    23    1
@<TRIPOS>MOLECULE
*****
 31 33 0 0 0
SMALL
GASTEIGER

@<TRIPOS>ATOM
      1 C          63.2296   86.9280   12.7284 C.ar    1  UNL1        0.0942
      2 C          62.8522   88.1818   11.9966 C.ar    1  UNL1        0.1078
      3 N          63.0537   89.5188   12.6460 N.ar    1  UNL1       -0.2119
      4 C          63.6325   89.6020   14.0274 C.ar    1  UNL1        0.2207
      5 N          64.0098   88.3482   14.7592 N.ar    1  UNL1       -0.2094
      6 C          63.8083   87.0112   14.1097 C.ar    1  UNL1        0.1613
      7 O          61.7843   85.3229   11.2845 O.2     1  UNL1       -0.2700
      8 C          63.0281   85.5910   12.0789 C.2     1  UNL1        0.2488
      9 N          64.0705   84.5221   12.2238 N.am    1  UNL1       -0.3008
     10 H          64.8869   84.6981   12.7452 H       1  UNL1        0.1497
     11 C          63.8691   83.1851   11.5744 C.3     1  UNL1        0.0898
     12 C          63.1315   82.1009   12.3028 C.3     1  UNL1        0.0246
     13 C          63.1629   80.6937   11.7845 C.3     1  UNL1        0.0338
     14 C          62.4253   79.6096   12.5129 C.3     1  UNL1        0.1422
     15 O          61.6563   79.9327   13.7597 O.3     1  UNL1       -0.3538
     16 C          61.6250   81.3399   14.2779 C.3     1  UNL1        0.1422
     17 C          62.3625   82.4240   13.5495 C.3     1  UNL1        0.0338
     18 C          64.1857   85.7574   14.8415 C.3     1  UNL1        0.4351
     19 F          64.5630   84.5036   15.5734 F       1  UNL1       -0.1644
     20 F          62.7341   85.4202   15.0123 F       1  UNL1       -0.1644
     21 F          65.6373   86.0945   14.6707 F       1  UNL1       -0.1644
     22 N          63.8339   90.9390   14.6769 N.pl3   1  UNL1       -0.2808
     23 H          63.0596   91.4418   15.0189 H       1  UNL1        0.1551
     24 C          65.2150   91.5100   14.8053 C.ar    1  UNL1        0.0783
     25 C          66.2016   91.3454   13.6875 C.ar    1  UNL1        0.0178
     26 C          67.5827   91.9163   13.8159 C.ar    1  UNL1        0.0128
     27 C          67.9772   92.6519   15.0621 C.ar    1  UNL1        0.0600
     28 CL         69.3584   93.2229   15.1905 Cl      1  UNL1       -0.0822
     29 C          66.9907   92.8166   16.1799 C.ar    1  UNL1        0.0423
     30 C          65.6096   92.2456   16.0515 C.ar    1  UNL1        0.1543
     31 F          64.6230   92.4102   17.1694 F       1  UNL1       -0.2028
@<TRIPOS>BOND
     1     7     8    2
     2     8     9   am
     3     9    11    1
     4    11    12    1
     5    12    13    1
     6    13    14    1
     7    14    15    1
     8    15    16    1
     9    16    17    1
    10     8     1    1
    11     1     2   ar
    12     2     3   ar
    13     3     4   ar
    14     4    22    1
    15    22    24    1
    16    24    25   ar
    17    25    26   ar
    18    26    27   ar
    19    27    28    1
    20    27    29   ar
    21    29    30   ar
    22    30    31    1
    23     4     5   ar
    24     5     6   ar
    25     6    18    1
    26    18    19    1
    27    18    20    1
    28    18    21    1
    29    17    12    1
    30     6     1   ar
    31    30    24   ar
    32     9    10    1
    33    22    23    1
@<TRIPOS>MOLECULE
*****
 31 33 0 0 0
SMALL
GASTEIGER

@<TRIPOS>ATOM
      1 C          63.5671   86.4311   14.8336 C.ar    1  UNL1        0.0942
      2 C          63.9613   87.0506   13.5255 C.ar    1  UNL1        0.1078
      3 N          64.0922   88.5404   13.4104 N.ar    1  UNL1       -0.2119
      4 C          63.8289   89.4108   14.6034 C.ar    1  UNL1        0.2207
      5 N          63.4347   88.7914   15.9114 N.ar    1  UNL1       -0.2094
      6 C          63.3039   87.3015   16.0265 C.ar    1  UNL1        0.1613
      7 O          64.6520   84.0986   15.1967 O.2     1  UNL1       -0.2700
      8 C          63.4362   84.9413   14.9487 C.2     1  UNL1        0.2488
      9 N          62.0895   84.2942   14.8158 N.am    1  UNL1       -0.3008
     10 H          61.2915   84.8474   14.6530 H       1  UNL1        0.1497
     11 C          61.9586   82.8044   14.9309 C.3     1  UNL1        0.0898
     12 C          62.2777   81.9303   13.7543 C.3     1  UNL1        0.0246
     13 C          62.7238   82.5463   12.4614 C.3     1  UNL1        0.0338
     14 C          63.0429   81.6723   11.2850 C.3     1  UNL1        0.1422
     15 O          62.9159   80.1822   11.4014 O.3     1  UNL1       -0.3538
     16 C          62.4698   79.5662   12.6942 C.3     1  UNL1        0.1422
     17 C          62.1507   80.4403   13.8707 C.3     1  UNL1        0.0338
     18 C          62.9097   86.6821   17.3345 C.3     1  UNL1        0.4351
     19 F          62.5155   86.0626   18.6425 F       1  UNL1       -0.1644
     20 F          64.2208   85.9552   17.3854 F       1  UNL1       -0.1644
     21 F          61.5986   87.4090   17.2837 F       1  UNL1       -0.1644
     22 N          63.9598   90.9007   14.4883 N.pl3   1  UNL1       -0.2808
     23 H          63.5014   91.4864   15.1334 H       1  UNL1        0.1551
     24 C          64.7890   91.4981   13.3904 C.ar    1  UNL1        0.0783
     25 C          64.1875   91.7260   12.0354 C.ar    1  UNL1        0.0178
     26 C          65.0167   92.3234   10.9375 C.ar    1  UNL1        0.0128
     27 C          66.4475   92.6930   11.1946 C.ar    1  UNL1        0.0600
     28 CL         67.2767   93.2905   10.0966 Cl      1  UNL1       -0.0822
     29 C          67.0491   92.4651   12.5496 C.ar    1  UNL1        0.0423
     30 C          66.2198   91.8677   13.6475 C.ar    1  UNL1        0.1543
     31 F          66.8215   91.6398   15.0026 F       1  UNL1       -0.2028
@<TRIPOS>BOND
     1     7     8    2
     2     8     9   am
     3     9    11    1
     4    11    12    1
     5    12    13    1
     6    13    14    1
     7    14    15    1
     8    15    16    1
     9    16    17    1
    10     8     1    1
    11     1     2   ar
    12     2     3   ar
    13     3     4   ar
    14     4    22    1
    15    22    24    1
    16    24    25   ar
    17    25    26   ar
    18    26    27   ar
    19    27    28    1
    20    27    29   ar
    21    29    30   ar
    22    30    31    1
    23     4     5   ar
    24     5     6   ar
    25     6    18    1
    26    18    19    1
    27    18    20    1
    28    18    21    1
    29    17    12    1
    30     6     1   ar
    31    30    24   ar
    32     9    10    1
    33    22    23    1
@<TRIPOS>MOLECULE
*****
 31 33 0 0 0
SMALL
GASTEIGER

@<TRIPOS>ATOM
      1 C          63.5654   86.4507   14.5450 C.ar    1  UNL1        0.0942
      2 C          63.8033   87.0789   13.2038 C.ar    1  UNL1        0.1078
      3 N          63.9294   88.5689   13.0852 N.ar    1  UNL1       -0.2119
      4 C          63.8175   89.4307   14.3079 C.ar    1  UNL1        0.2207
      5 N          63.5795   88.8025   15.6490 N.ar    1  UNL1       -0.2094
      6 C          63.4535   87.3125   15.7676 C.ar    1  UNL1        0.1613
      7 O          64.6702   84.1099   14.7681 O.2     1  UNL1       -0.2700
      8 C          63.4393   84.9608   14.6635 C.2     1  UNL1        0.2488
      9 N          62.0823   84.3216   14.6775 N.am    1  UNL1       -0.3008
     10 H          61.2744   84.8801   14.6089 H       1  UNL1        0.1497
     11 C          61.9562   82.8317   14.7961 C.3     1  UNL1        0.0898
     12 C          62.2875   81.9553   13.6246 C.3     1  UNL1        0.0246
     13 C          62.1711   80.4649   13.7463 C.3     1  UNL1        0.0338
     14 C          62.5024   79.5886   12.5748 C.3     1  UNL1        0.1422
     15 O          62.9500   80.2028   11.2816 O.3     1  UNL1       -0.3538
     16 C          63.0663   81.6933   11.1599 C.3     1  UNL1        0.1422
     17 C          62.7351   82.5696   12.3314 C.3     1  UNL1        0.0338
     18 C          63.2155   86.6843   17.1087 C.3     1  UNL1        0.4351
     19 F          62.9775   86.0561   18.4499 F       1  UNL1       -0.1644
     20 F          61.9916   87.5327   17.2889 F       1  UNL1       -0.1644
     21 F          64.4393   85.8359   16.9285 F       1  UNL1       -0.1644
     22 N          63.9436   90.9207   14.1893 N.pl3   1  UNL1       -0.2808
     23 H          63.1824   91.4549   13.8660 H       1  UNL1        0.1551
     24 C          65.2293   91.5967   14.5632 C.ar    1  UNL1        0.0783
     25 C          66.3283   91.7304   13.5512 C.ar    1  UNL1        0.0178
     26 C          67.6141   92.4064   13.9251 C.ar    1  UNL1        0.0128
     27 C          67.8009   92.9487   15.3111 C.ar    1  UNL1        0.0600
     28 CL         69.0866   93.6247   15.6850 Cl      1  UNL1       -0.0822
     29 C          66.7018   92.8150   16.3231 C.ar    1  UNL1        0.0423
     30 C          65.4161   92.1390   15.9492 C.ar    1  UNL1        0.1543
     31 F          64.3171   92.0053   16.9613 F       1  UNL1       -0.2028
@<TRIPOS>BOND
     1     7     8    2
     2     8     9   am
     3     9    11    1
     4    11    12    1
     5    12    13    1
     6    13    14    1
     7    14    15    1
     8    15    16    1
     9    16    17    1
    10     8     1    1
    11     1     2   ar
    12     2     3   ar
    13     3     4   ar
    14     4    22    1
    15    22    24    1
    16    24    25   ar
    17    25    26   ar
    18    26    27   ar
    19    27    28    1
    20    27    29   ar
    21    29    30   ar
    22    30    31    1
    23     4     5   ar
    24     5     6   ar
    25     6    18    1
    26    18    19    1
    27    18    20    1
    28    18    21    1
    29    17    12    1
    30     6     1   ar
    31    30    24   ar
    32     9    10    1
    33    22    23    1
@<TRIPOS>MOLECULE
*****
 31 33 0 0 0
SMALL
GASTEIGER

@<TRIPOS>ATOM
      1 C          60.5917   86.9068    9.3822 C.ar    1  UNL1        0.0942
      2 C          61.2835   85.6105    9.0807 C.ar    1  UNL1        0.1078
      3 N          62.2759   85.0460   10.0535 N.ar    1  UNL1       -0.2119
      4 C          62.5768   85.7779   11.3278 C.ar    1  UNL1        0.2207
      5 N          61.8850   87.0743   11.6293 N.ar    1  UNL1       -0.2094
      6 C          60.8925   87.6387   10.6565 C.ar    1  UNL1        0.1613
      7 O          58.3050   86.7559    8.1584 O.2     1  UNL1       -0.2700
      8 C          59.5993   87.4713    8.4095 C.2     1  UNL1        0.2488
      9 N          59.9010   88.7512    7.6878 N.am    1  UNL1       -0.3008
     10 H          60.7505   89.2208    7.8526 H       1  UNL1        0.1497
     11 C          58.9086   89.3157    6.7150 C.3     1  UNL1        0.0898
     12 C          59.3332   90.3718    5.7380 C.3     1  UNL1        0.0246
     13 C          58.3176   91.3149    5.1645 C.3     1  UNL1        0.0338
     14 C          58.7423   92.3709    4.1875 C.3     1  UNL1        0.1422
     15 O          60.1826   92.4838    3.7841 O.3     1  UNL1       -0.3538
     16 C          61.1982   91.5407    4.3577 C.3     1  UNL1        0.1422
     17 C          60.7735   90.4847    5.3346 C.3     1  UNL1        0.0338
     18 C          60.2008   88.9351   10.9580 C.3     1  UNL1        0.4351
     19 F          59.5091   90.2315   11.2595 F       1  UNL1       -0.1644
     20 F          61.3001   89.6832   10.2638 F       1  UNL1       -0.1644
     21 F          59.1014   88.1871   11.6522 F       1  UNL1       -0.1644
     22 N          63.5692   85.2134   12.3006 N.pl3   1  UNL1       -0.2808
     23 H          64.3152   84.6586   11.9766 H       1  UNL1        0.1551
     24 C          63.4252   85.4942   13.7670 C.ar    1  UNL1        0.0783
     25 C          64.0573   86.7175   14.3620 C.ar    1  UNL1        0.0178
     26 C          63.9133   86.9983   15.8284 C.ar    1  UNL1        0.0128
     27 C          63.1372   86.0559   16.6998 C.ar    1  UNL1        0.0600
     28 CL         62.9931   86.3367   18.1663 Cl      1  UNL1       -0.0822
     29 C          62.5051   84.8326   16.1049 C.ar    1  UNL1        0.0423
     30 C          62.6491   84.5518   14.6384 C.ar    1  UNL1        0.1543
     31 F          62.0170   83.3285   14.0435 F       1  UNL1       -0.2028
@<TRIPOS>BOND
     1     7     8    2
     2     8     9   am
     3     9    11    1
     4    11    12    1
     5    12    13    1
     6    13    14    1
     7    14    15    1
     8    15    16    1
     9    16    17    1
    10     8     1    1
    11     1     2   ar
    12     2     3   ar
    13     3     4   ar
    14     4    22    1
    15    22    24    1
    16    24    25   ar
    17    25    26   ar
    18    26    27   ar
    19    27    28    1
    20    27    29   ar
    21    29    30   ar
    22    30    31    1
    23     4     5   ar
    24     5     6   ar
    25     6    18    1
    26    18    19    1
    27    18    20    1
    28    18    21    1
    29    17    12    1
    30     6     1   ar
    31    30    24   ar
    32     9    10    1
    33    22    23    1
