@<TRIPOS>MOLECULE
*****
 18 19 0 0 0
SMALL
GASTEIGER

@<TRIPOS>ATOM
      1 C          63.6922   83.1375   11.7936 C.2     1  UNL1        0.1223
      2 C          64.0894   83.1234   10.3472 C.2     1  UNL1        0.0343
      3 C          63.5656   84.1756    9.4153 C.2     1  UNL1        0.0232
      4 C          62.6446   85.2419    9.9297 C.2     1  UNL1        0.0975
      5 N          61.9739   86.4008    9.2536 N.2     1  UNL1       -0.2200
      6 C          61.1623   87.1312   10.2821 C.2     1  UNL1        0.1898
      7 N          61.3312   86.4237   11.5939 N.2     1  UNL1       -0.2236
      8 C          62.2474   85.2560   11.3761 C.2     1  UNL1        0.0863
      9 C          62.7712   84.2038   12.3080 C.3     1  UNL1        0.1112
     10 C          63.3067   80.9981   13.2163 C.3     1  UNL1        0.2520
     11 O          64.2161   82.0853   12.7255 O.2     1  UNL1       -0.4753
     12 S          60.3280   88.3544   10.0411 S.3     1  UNL1       -0.0757
     13 C          60.9669   89.7115   10.0493 C.3     1  UNL1        0.0655
     14 C          62.4473   89.8423   10.2523 C.3     1  UNL1        0.0180
     15 C          62.9835   90.8246   11.2510 C.3     1  UNL1        0.0426
     16 C          63.3678   90.3628   12.6254 C.2     1  UNL1        0.0504
     17 O          63.7801   91.3628   13.6647 O.co2   1  UNL1       -0.5492
     18 O          63.3397   88.9010   12.9606 O.co2   1  UNL1       -0.5492
@<TRIPOS>UNITY_ATOM_ATTR
17 1
charge -1
@<TRIPOS>BOND
     1    10    11    1
     2    11     1    1
     3     1     2    2
     4     2     3    1
     5     3     4    2
     6     4     5    1
     7     5     6    2
     8     6    12    1
     9    12    13    1
    10    13    14    1
    11    14    15    1
    12    15    16    1
    13    16    17   ar
    14    16    18   ar
    15     6     7    1
    16     7     8    2
    17     8     9    1
    18     9     1    1
    19     8     4    1
@<TRIPOS>MOLECULE
*****
 18 19 0 0 0
SMALL
GASTEIGER

@<TRIPOS>ATOM
      1 C          59.8568   88.3237    8.3254 C.2     1  UNL1        0.1223
      2 C          60.3808   89.4471    9.1700 C.2     1  UNL1        0.0343
      3 C          61.2554   89.1517   10.3523 C.2     1  UNL1        0.0232
      4 C          61.6061   87.7329   10.6899 C.2     1  UNL1        0.0975
      5 N          62.4409   87.1388   11.7855 N.2     1  UNL1       -0.2200
      6 C          62.4328   85.6482   11.6180 C.2     1  UNL1        0.1898
      7 N          61.5931   85.3211   10.4189 N.2     1  UNL1       -0.2236
      8 C          61.0822   86.6096    9.8453 C.2     1  UNL1        0.0863
      9 C          60.2075   86.9049    8.6630 C.3     1  UNL1        0.1112
     10 C          59.2940   89.7848    6.2521 C.3     1  UNL1        0.2520
     11 O          58.9822   88.6191    7.1431 O.2     1  UNL1       -0.4753
     12 S          63.1403   84.6585   12.4955 S.3     1  UNL1       -0.0757
     13 C          63.6539   83.3743   11.9151 C.3     1  UNL1        0.0655
     14 C          62.7354   82.1978   11.7670 C.3     1  UNL1        0.0180
     15 C          62.6535   81.1686   12.8551 C.3     1  UNL1        0.0426
     16 C          61.9041   81.4711   14.1187 C.2     1  UNL1        0.0504
     17 O          62.5130   82.3681   15.1554 O.co2   1  UNL1       -0.5492
     18 O          60.5457   80.8766   14.3458 O.co2   1  UNL1       -0.5492
@<TRIPOS>UNITY_ATOM_ATTR
17 1
charge -1
@<TRIPOS>BOND
     1    10    11    1
     2    11     1    1
     3     1     2    2
     4     2     3    1
     5     3     4    2
     6     4     5    1
     7     5     6    2
     8     6    12    1
     9    12    13    1
    10    13    14    1
    11    14    15    1
    12    15    16    1
    13    16    17   ar
    14    16    18   ar
    15     6     7    1
    16     7     8    2
    17     8     9    1
    18     9     1    1
    19     8     4    1
@<TRIPOS>MOLECULE
*****
 18 19 0 0 0
SMALL
GASTEIGER

@<TRIPOS>ATOM
      1 C          65.9645   91.9703   13.3646 C.2     1  UNL1        0.1223
      2 C          65.6033   91.0185   14.4662 C.2     1  UNL1        0.0343
      3 C          64.3583   90.1884   14.3620 C.2     1  UNL1        0.0232
      4 C          63.4744   90.3102   13.1562 C.2     1  UNL1        0.0975
      5 N          62.1939   89.6272   12.7773 N.2     1  UNL1       -0.2200
      6 C          61.7636   90.1569   11.4416 C.2     1  UNL1        0.1898
      7 N          62.7782   91.1673   10.9949 N.2     1  UNL1       -0.2236
      8 C          63.8356   91.2620   12.0547 C.2     1  UNL1        0.0863
      9 C          65.0806   92.0921   12.1588 C.3     1  UNL1        0.1112
     10 C          68.0251   92.7744   14.7274 C.3     1  UNL1        0.2520
     11 O          67.2096   92.8004   13.4688 O.2     1  UNL1       -0.4753
     12 S          60.5344   89.7479   10.6852 S.3     1  UNL1       -0.0757
     13 C          60.6643   89.0173    9.3816 C.3     1  UNL1        0.0655
     14 C          61.4364   87.7330    9.3153 C.3     1  UNL1        0.0180
     15 C          60.7101   86.4273    9.1825 C.3     1  UNL1        0.0426
     16 C          59.8313   86.1755    7.9933 C.2     1  UNL1        0.0504
     17 O          58.5127   86.8804    7.8724 O.co2   1  UNL1       -0.5492
     18 O          60.2711   85.2188    6.9250 O.co2   1  UNL1       -0.5492
@<TRIPOS>UNITY_ATOM_ATTR
17 1
charge -1
@<TRIPOS>BOND
     1    10    11    1
     2    11     1    1
     3     1     2    2
     4     2     3    1
     5     3     4    2
     6     4     5    1
     7     5     6    2
     8     6    12    1
     9    12    13    1
    10    13    14    1
    11    14    15    1
    12    15    16    1
    13    16    17   ar
    14    16    18   ar
    15     6     7    1
    16     7     8    2
    17     8     9    1
    18     9     1    1
    19     8     4    1
@<TRIPOS>MOLECULE
*****
 18 19 0 0 0
SMALL
GASTEIGER

@<TRIPOS>ATOM
      1 C          63.6307   83.7298   12.2139 C.2     1  UNL1        0.1223
      2 C          64.0646   83.3538   10.8282 C.2     1  UNL1        0.0343
      3 C          63.5325   84.1072    9.6453 C.2     1  UNL1        0.0232
      4 C          62.5665   85.2366    9.8481 C.2     1  UNL1        0.0975
      5 N          61.8780   86.1543    8.8818 N.2     1  UNL1       -0.2200
      6 C          61.0186   87.0976    9.6703 C.2     1  UNL1        0.1898
      7 N          61.1759   86.7628   11.1240 N.2     1  UNL1       -0.2236
      8 C          62.1326   85.6127   11.2339 C.2     1  UNL1        0.0863
      9 C          62.6647   84.8593   12.4168 C.3     1  UNL1        0.1112
     10 C          64.2349   83.6417   14.7392 C.3     1  UNL1        0.2520
     11 O          64.1628   82.9764   13.3968 O.2     1  UNL1       -0.4753
     12 S          60.1537   88.1847    9.1045 S.3     1  UNL1       -0.0757
     13 C          59.9100   88.2561    7.6261 C.3     1  UNL1        0.0655
     14 C          58.9850   89.2967    7.0679 C.3     1  UNL1        0.0180
     15 C          59.4386   90.1763    5.9407 C.3     1  UNL1        0.0426
     16 C          58.4778   91.1377    5.3062 C.2     1  UNL1        0.0504
     17 O          56.9998   90.9189    5.4398 O.co2   1  UNL1       -0.5492
     18 O          58.9949   92.3178    4.5382 O.co2   1  UNL1       -0.5492
@<TRIPOS>UNITY_ATOM_ATTR
17 1
charge -1
@<TRIPOS>BOND
     1    10    11    1
     2    11     1    1
     3     1     2    2
     4     2     3    1
     5     3     4    2
     6     4     5    1
     7     5     6    2
     8     6    12    1
     9    12    13    1
    10    13    14    1
    11    14    15    1
    12    15    16    1
    13    16    17   ar
    14    16    18   ar
    15     6     7    1
    16     7     8    2
    17     8     9    1
    18     9     1    1
    19     8     4    1
@<TRIPOS>MOLECULE
*****
 18 19 0 0 0
SMALL
GASTEIGER

@<TRIPOS>ATOM
      1 C          65.1470   92.0525   13.2240 C.2     1  UNL1        0.1223
      2 C          65.1650   91.0357   14.3266 C.2     1  UNL1        0.0343
      3 C          64.4135   89.7469   14.1707 C.2     1  UNL1        0.0232
      4 C          63.6440   89.4749   12.9122 C.2     1  UNL1        0.0975
      5 N          62.8144   88.3037   12.4763 N.2     1  UNL1       -0.2200
      6 C          62.2837   88.5966   11.1042 C.2     1  UNL1        0.1898
      7 N          62.7853   89.9488   10.6922 N.2     1  UNL1       -0.2236
      8 C          63.6261   90.4917   11.8096 C.2     1  UNL1        0.0863
      9 C          64.3776   91.7804   11.9655 C.3     1  UNL1        0.1112
     10 C          66.2078   94.1795   12.1751 C.3     1  UNL1        0.2520
     11 O          65.8985   93.3412   13.3799 O.2     1  UNL1       -0.4753
     12 S          61.4056   87.6954   10.2876 S.3     1  UNL1       -0.0757
     13 C          61.3005   86.2389   10.6304 C.3     1  UNL1        0.0655
     14 C          62.5130   85.3597   10.5484 C.3     1  UNL1        0.0180
     15 C          62.7571   84.3188   11.6005 C.3     1  UNL1        0.0426
     16 C          63.4697   83.0473   11.2464 C.2     1  UNL1        0.0504
     17 O          64.7936   83.1002   10.5432 O.co2   1  UNL1       -0.5492
     18 O          62.8583   81.7227   11.5955 O.co2   1  UNL1       -0.5492
@<TRIPOS>UNITY_ATOM_ATTR
17 1
charge -1
@<TRIPOS>BOND
     1    10    11    1
     2    11     1    1
     3     1     2    2
     4     2     3    1
     5     3     4    2
     6     4     5    1
     7     5     6    2
     8     6    12    1
     9    12    13    1
    10    13    14    1
    11    14    15    1
    12    15    16    1
    13    16    17   ar
    14    16    18   ar
    15     6     7    1
    16     7     8    2
    17     8     9    1
    18     9     1    1
    19     8     4    1
@<TRIPOS>MOLECULE
*****
 18 19 0 0 0
SMALL
GASTEIGER

@<TRIPOS>ATOM
      1 C          63.4326   82.7377   13.8282 C.2     1  UNL1        0.1223
      2 C          62.8609   83.1783   12.5133 C.2     1  UNL1        0.0343
      3 C          62.8272   84.6359   12.1607 C.2     1  UNL1        0.0232
      4 C          63.3651   85.6529   13.1232 C.2     1  UNL1        0.0975
      5 N          63.4653   87.1478   13.0517 N.2     1  UNL1       -0.2200
      6 C          64.0989   87.6312   14.3226 C.2     1  UNL1        0.1898
      7 N          64.3903   86.4350   15.1794 N.2     1  UNL1       -0.2236
      8 C          63.9367   85.2123   14.4381 C.2     1  UNL1        0.0863
      9 C          63.9705   83.7547   14.7906 C.3     1  UNL1        0.1112
     10 C          62.4361   80.3478   13.6155 C.3     1  UNL1        0.2520
     11 O          63.4663   81.2801   14.1807 O.2     1  UNL1       -0.4753
     12 S          64.3900   89.0600   14.6747 S.3     1  UNL1       -0.0757
     13 C          63.9009   90.1658   13.7870 C.3     1  UNL1        0.0655
     14 C          64.8476   91.2365   13.3319 C.3     1  UNL1        0.0180
     15 C          66.1366   91.4596   14.0659 C.3     1  UNL1        0.0426
     16 C          67.2219   92.2857   13.4418 C.2     1  UNL1        0.0504
     17 O          66.9827   92.9693   12.1282 O.co2   1  UNL1       -0.5492
     18 O          68.5464   92.4282   14.1312 O.co2   1  UNL1       -0.5492
@<TRIPOS>UNITY_ATOM_ATTR
17 1
charge -1
@<TRIPOS>BOND
     1    10    11    1
     2    11     1    1
     3     1     2    2
     4     2     3    1
     5     3     4    2
     6     4     5    1
     7     5     6    2
     8     6    12    1
     9    12    13    1
    10    13    14    1
    11    14    15    1
    12    15    16    1
    13    16    17   ar
    14    16    18   ar
    15     6     7    1
    16     7     8    2
    17     8     9    1
    18     9     1    1
    19     8     4    1
@<TRIPOS>MOLECULE
*****
 18 19 0 0 0
SMALL
GASTEIGER

@<TRIPOS>ATOM
      1 C          65.7323   92.4765   11.8357 C.2     1  UNL1        0.1223
      2 C          65.7096   91.9200   13.2284 C.2     1  UNL1        0.0343
      3 C          64.6159   90.9810   13.6432 C.2     1  UNL1        0.0232
      4 C          63.5449   90.5984   12.6652 C.2     1  UNL1        0.0975
      5 N          62.3493   89.7008   12.7863 N.2     1  UNL1       -0.2200
      6 C          61.6329   89.7024   11.4684 C.2     1  UNL1        0.1898
      7 N          62.3859   90.6011   10.5328 N.2     1  UNL1       -0.2236
      8 C          63.5676   91.1548   11.2725 C.2     1  UNL1        0.0863
      9 C          64.6613   92.0939   10.8577 C.3     1  UNL1        0.1112
     10 C          66.9271   93.8653    9.9935 C.3     1  UNL1        0.2520
     11 O          66.8260   93.4155   11.4209 O.2     1  UNL1       -0.4753
     12 S          60.3831   88.9394   11.1432 S.3     1  UNL1       -0.0757
     13 C          60.4743   87.6050   10.4642 C.3     1  UNL1        0.0655
     14 C          61.7465   87.1954    9.7833 C.3     1  UNL1        0.0180
     15 C          62.3304   85.8375   10.0389 C.3     1  UNL1        0.0426
     16 C          62.5457   85.3665   11.4466 C.2     1  UNL1        0.0504
     17 O          62.9583   86.3419   12.5090 O.co2   1  UNL1       -0.5492
     18 O          62.3484   83.9203   11.7921 O.co2   1  UNL1       -0.5492
@<TRIPOS>UNITY_ATOM_ATTR
17 1
charge -1
@<TRIPOS>BOND
     1    10    11    1
     2    11     1    1
     3     1     2    2
     4     2     3    1
     5     3     4    2
     6     4     5    1
     7     5     6    2
     8     6    12    1
     9    12    13    1
    10    13    14    1
    11    14    15    1
    12    15    16    1
    13    16    17   ar
    14    16    18   ar
    15     6     7    1
    16     7     8    2
    17     8     9    1
    18     9     1    1
    19     8     4    1
@<TRIPOS>MOLECULE
*****
 18 19 0 0 0
SMALL
GASTEIGER

@<TRIPOS>ATOM
      1 C          63.7287   83.3511   12.7125 C.2     1  UNL1        0.1223
      2 C          64.4630   82.8456   11.5062 C.2     1  UNL1        0.0343
      3 C          64.1464   83.3997   10.1487 C.2     1  UNL1        0.0232
      4 C          63.0955   84.4592    9.9976 C.2     1  UNL1        0.0975
      5 N          62.5714   85.1891    8.7965 N.2     1  UNL1       -0.2200
      6 C          61.5133   86.1456    9.2605 C.2     1  UNL1        0.1898
      7 N          61.3833   86.0069   10.7484 N.2     1  UNL1       -0.2236
      8 C          62.3612   84.9647   11.2039 C.2     1  UNL1        0.0863
      9 C          62.6778   84.4106   12.5614 C.3     1  UNL1        0.1112
     10 C          63.4643   83.4374   15.2957 C.3     1  UNL1        0.2520
     11 O          64.0453   82.7970   14.0700 O.2     1  UNL1       -0.4753
     12 S          60.7237   87.0773    8.3894 S.3     1  UNL1       -0.0757
     13 C          59.8037   88.0860    9.0107 C.3     1  UNL1        0.0655
     14 C          60.2364   89.5164    9.1399 C.3     1  UNL1        0.0180
     15 C          60.1904   90.1961   10.4762 C.3     1  UNL1        0.0426
     16 C          60.4327   89.4063   11.7282 C.2     1  UNL1        0.0504
     17 O          61.8249   89.2662   12.2690 O.co2   1  UNL1       -0.5492
     18 O          59.2829   88.7566   12.4394 O.co2   1  UNL1       -0.5492
@<TRIPOS>UNITY_ATOM_ATTR
17 1
charge -1
@<TRIPOS>BOND
     1    10    11    1
     2    11     1    1
     3     1     2    2
     4     2     3    1
     5     3     4    2
     6     4     5    1
     7     5     6    2
     8     6    12    1
     9    12    13    1
    10    13    14    1
    11    14    15    1
    12    15    16    1
    13    16    17   ar
    14    16    18   ar
    15     6     7    1
    16     7     8    2
    17     8     9    1
    18     9     1    1
    19     8     4    1
@<TRIPOS>MOLECULE
*****
 18 19 0 0 0
SMALL
GASTEIGER

@<TRIPOS>ATOM
      1 C          61.0298   87.6834    9.3564 C.2     1  UNL1        0.1223
      2 C          60.5803   89.1116    9.2668 C.2     1  UNL1        0.0343
      3 C          61.0753   90.1177   10.2632 C.2     1  UNL1        0.0232
      4 C          62.0199   89.6955   11.3493 C.2     1  UNL1        0.0975
      5 N          62.6715   90.4574   12.4650 N.2     1  UNL1       -0.2200
      6 C          63.5237   89.5000   13.2443 C.2     1  UNL1        0.1898
      7 N          63.3989   88.1464   12.6101 N.2     1  UNL1       -0.2236
      8 C          62.4694   88.2673   11.4389 C.2     1  UNL1        0.0863
      9 C          61.9744   87.2612   10.4425 C.3     1  UNL1        0.1112
     10 C          59.1502   86.7990    7.7961 C.3     1  UNL1        0.2520
     11 O          60.5348   86.6774    8.3600 O.2     1  UNL1       -0.4753
     12 S          64.3549   89.8371   14.4466 S.3     1  UNL1       -0.0757
     13 C          65.4950   90.8040   14.3230 C.3     1  UNL1        0.0655
     14 C          65.6214   91.9424   15.2916 C.3     1  UNL1        0.0180
     15 C          66.6724   92.9919   15.0824 C.3     1  UNL1        0.0426
     16 C          68.1241   92.6152   15.1087 C.2     1  UNL1        0.0504
     17 O          68.8676   92.4044   13.8230 O.co2   1  UNL1       -0.5492
     18 O          68.8323   92.4494   16.4205 O.co2   1  UNL1       -0.5492
@<TRIPOS>UNITY_ATOM_ATTR
17 1
charge -1
@<TRIPOS>BOND
     1    10    11    1
     2    11     1    1
     3     1     2    2
     4     2     3    1
     5     3     4    2
     6     4     5    1
     7     5     6    2
     8     6    12    1
     9    12    13    1
    10    13    14    1
    11    14    15    1
    12    15    16    1
    13    16    17   ar
    14    16    18   ar
    15     6     7    1
    16     7     8    2
    17     8     9    1
    18     9     1    1
    19     8     4    1
