@<TRIPOS>MOLECULE
*****
 34 37 0 0 0
SMALL
GASTEIGER

@<TRIPOS>ATOM
      1 C          62.8339   89.7649   13.1925 C.3     1  UNL1        0.1139
      2 C          63.6465   90.8082   12.4845 C.ar    1  UNL1       -0.0029
      3 C          63.4403   91.0526   11.0190 C.ar    1  UNL1       -0.0026
      4 C          64.2528   92.0959   10.3110 C.ar    1  UNL1       -0.0003
      5 C          65.2715   92.8949   11.0686 C.ar    1  UNL1       -0.0000
      6 C          65.4777   92.6505   12.5340 C.ar    1  UNL1       -0.0003
      7 C          64.6652   91.6072   13.2420 C.ar    1  UNL1       -0.0026
      8 C          66.0840   93.9383   10.3605 C.ar    1  UNL1       -0.0000
      9 C          67.2100   93.5276    9.4586 C.ar    1  UNL1       -0.0000
     10 C          68.0225   94.5710    8.7505 C.ar    1  UNL1        0.0000
     11 C          67.7091   96.0250    8.9445 C.ar    1  UNL1        0.0000
     12 C          66.5830   96.4356    9.8465 C.ar    1  UNL1        0.0000
     13 C          65.7706   95.3923   10.5545 C.ar    1  UNL1       -0.0000
     14 C          63.7797   87.4220   13.7981 C.2     1  UNL1        0.2461
     15 O          63.4124   86.9209   12.4329 O.2     1  UNL1       -0.2730
     16 N          63.4905   88.8441   14.1779 N.am    1  UNL1       -0.2729
     17 C          63.8578   89.3452   15.5431 C.3     1  UNL1        0.1152
     18 C          64.4362   86.5012   14.7835 C.3     1  UNL1        0.1773
     19 C          63.0928   85.4447   16.7402 C.3     1  UNL1        0.1126
     20 N          63.6688   85.3479   15.3587 N.pl3   1  UNL1       -0.2980
     21 C          63.4776   84.0977   14.5523 C.ar    1  UNL1        0.0491
     22 C          64.4648   83.7371   13.4820 C.ar    1  UNL1        0.0154
     23 C          64.2736   82.4869   12.6756 C.ar    1  UNL1        0.0135
     24 C          63.0951   81.5972   12.9393 C.ar    1  UNL1        0.0683
     25 CL         62.9038   80.3469   12.1329 Cl      1  UNL1       -0.0814
     26 C          62.1079   81.9577   14.0096 C.ar    1  UNL1        0.0694
     27 CL         60.9294   81.0680   14.2733 Cl      1  UNL1       -0.0813
     28 C          62.2991   83.2079   14.8160 C.ar    1  UNL1        0.0268
     29 C          61.3649   89.6424   12.9151 C.3     1  UNL1        0.0967
     30 N          60.8921   89.1696   11.5723 N.3     1  UNL1       -0.2710
     31 C          60.4793   90.0435   10.4252 C.3     1  UNL1        0.0722
     32 C          60.0811   89.1540    9.2848 C.3     1  UNL1        0.0188
     33 C          60.2479   87.7304    9.7273 C.3     1  UNL1        0.0188
     34 C          60.7491   87.7401   11.1410 C.3     1  UNL1        0.0722
@<TRIPOS>BOND
     1    19    20    1
     2    20    18    1
     3    18    14    1
     4    14    15    2
     5    14    16   am
     6    16    17    1
     7    16     1    1
     8     1    29    1
     9    29    30    1
    10    30    31    1
    11    31    32    1
    12    32    33    1
    13    33    34    1
    14     1     2    1
    15     2     3   ar
    16     3     4   ar
    17     4     5   ar
    18     5     8    1
    19     8     9   ar
    20     9    10   ar
    21    10    11   ar
    22    11    12   ar
    23    12    13   ar
    24     5     6   ar
    25     6     7   ar
    26    20    21    1
    27    21    22   ar
    28    22    23   ar
    29    23    24   ar
    30    24    25    1
    31    24    26   ar
    32    26    27    1
    33    26    28   ar
    34    34    30    1
    35     7     2   ar
    36    28    21   ar
    37    13     8   ar
@<TRIPOS>MOLECULE
*****
 34 37 0 0 0
SMALL
GASTEIGER

@<TRIPOS>ATOM
      1 C          62.8281   89.7719   13.1507 C.3     1  UNL1        0.1139
      2 C          63.6396   90.8215   12.4507 C.ar    1  UNL1       -0.0029
      3 C          64.6484   91.6244   13.2172 C.ar    1  UNL1       -0.0026
      4 C          65.4599   92.6739   12.5173 C.ar    1  UNL1       -0.0003
      5 C          65.2626   92.9205   11.0509 C.ar    1  UNL1       -0.0000
      6 C          64.2538   92.1175   10.2844 C.ar    1  UNL1       -0.0003
      7 C          63.4423   91.0680   10.9844 C.ar    1  UNL1       -0.0026
      8 C          66.0742   93.9701   10.3509 C.ar    1  UNL1       -0.0000
      9 C          65.7572   95.4221   10.5535 C.ar    1  UNL1       -0.0000
     10 C          66.5688   96.4717    9.8536 C.ar    1  UNL1        0.0000
     11 C          67.6973   96.0691    8.9511 C.ar    1  UNL1        0.0000
     12 C          68.0142   94.6170    8.7486 C.ar    1  UNL1        0.0000
     13 C          67.2027   93.5675    9.4485 C.ar    1  UNL1       -0.0000
     14 C          63.7666   87.4231   13.7445 C.2     1  UNL1        0.2461
     15 O          63.3910   86.9278   12.3794 O.2     1  UNL1       -0.2730
     16 N          63.4852   88.8452   14.1302 N.am    1  UNL1       -0.2729
     17 C          63.8608   89.3404   15.4953 C.3     1  UNL1        0.1152
     18 C          64.4237   86.4964   14.7241 C.3     1  UNL1        0.1773
     19 C          63.0689   85.4631   16.6854 C.3     1  UNL1        0.1126
     20 N          63.6507   85.3509   15.3074 N.pl3   1  UNL1       -0.2980
     21 C          63.4595   84.0932   14.5127 C.ar    1  UNL1        0.0491
     22 C          64.4428   83.7265   13.4408 C.ar    1  UNL1        0.0154
     23 C          64.2516   82.4688   12.6461 C.ar    1  UNL1        0.0135
     24 C          63.0771   81.5778   12.9232 C.ar    1  UNL1        0.0683
     25 CL         62.8860   80.3200   12.1284 Cl      1  UNL1       -0.0814
     26 C          62.0939   81.9444   13.9950 C.ar    1  UNL1        0.0694
     27 CL         60.9195   81.0534   14.2721 Cl      1  UNL1       -0.0813
     28 C          62.2851   83.2022   14.7898 C.ar    1  UNL1        0.0268
     29 C          61.3595   89.6490   12.8711 C.3     1  UNL1        0.0967
     30 N          60.8892   89.1512   11.5365 N.3     1  UNL1       -0.2710
     31 C          60.7035   87.7146   11.1469 C.3     1  UNL1        0.0722
     32 C          60.2215   87.6780    9.7269 C.3     1  UNL1        0.0188
     33 C          60.1093   89.0921    9.2389 C.3     1  UNL1        0.0188
     34 C          60.5220   90.0025   10.3573 C.3     1  UNL1        0.0722
@<TRIPOS>BOND
     1    19    20    1
     2    20    18    1
     3    18    14    1
     4    14    15    2
     5    14    16   am
     6    16    17    1
     7    16     1    1
     8     1    29    1
     9    29    30    1
    10    30    31    1
    11    31    32    1
    12    32    33    1
    13    33    34    1
    14     1     2    1
    15     2     3   ar
    16     3     4   ar
    17     4     5   ar
    18     5     8    1
    19     8     9   ar
    20     9    10   ar
    21    10    11   ar
    22    11    12   ar
    23    12    13   ar
    24     5     6   ar
    25     6     7   ar
    26    20    21    1
    27    21    22   ar
    28    22    23   ar
    29    23    24   ar
    30    24    25    1
    31    24    26   ar
    32    26    27    1
    33    26    28   ar
    34    34    30    1
    35     7     2   ar
    36    28    21   ar
    37    13     8   ar
@<TRIPOS>MOLECULE
*****
 34 37 0 0 0
SMALL
GASTEIGER

@<TRIPOS>ATOM
      1 C          63.5410   90.2129   13.2780 C.3     1  UNL1        0.1139
      2 C          63.1201   89.2880   12.1745 C.ar    1  UNL1       -0.0029
      3 C          62.7033   89.8461   10.8461 C.ar    1  UNL1       -0.0026
      4 C          62.2824   88.9212    9.7428 C.ar    1  UNL1       -0.0003
      5 C          62.2783   87.4382    9.9679 C.ar    1  UNL1       -0.0000
      6 C          62.6951   86.8801   11.2963 C.ar    1  UNL1       -0.0003
      7 C          63.1160   87.8050   12.3996 C.ar    1  UNL1       -0.0026
      8 C          61.8573   86.5133    8.8645 C.ar    1  UNL1       -0.0000
      9 C          60.4430   86.5359    8.3656 C.ar    1  UNL1       -0.0000
     10 C          60.0220   85.6109    7.2622 C.ar    1  UNL1        0.0000
     11 C          61.0155   84.6635    6.6578 C.ar    1  UNL1        0.0000
     12 C          62.4300   84.6410    7.1568 C.ar    1  UNL1        0.0000
     13 C          62.8508   85.5658    8.2601 C.ar    1  UNL1       -0.0000
     14 C          62.8977   89.2399   15.5995 C.2     1  UNL1        0.2461
     15 O          61.4445   89.3819   15.2563 O.2     1  UNL1       -0.2730
     16 N          63.9461   89.6554   14.6103 N.am    1  UNL1       -0.2729
     17 C          65.3993   89.5134   14.9535 C.3     1  UNL1        0.1152
     18 C          63.3027   88.6824   16.9319 C.3     1  UNL1        0.1773
     19 C          62.5333   86.8088   18.5590 C.3     1  UNL1        0.1126
     20 N          63.0923   87.2279   17.2316 N.pl3   1  UNL1       -0.2980
     21 C          63.4407   86.1923   16.2039 C.ar    1  UNL1        0.0491
     22 C          64.6981   86.3293   15.3975 C.ar    1  UNL1        0.0154
     23 C          65.0466   85.2937   14.3698 C.ar    1  UNL1        0.0135
     24 C          64.1377   84.1212   14.1485 C.ar    1  UNL1        0.0683
     25 CL         64.4862   83.0856   13.1207 Cl      1  UNL1       -0.0814
     26 C          62.8803   83.9842   14.9548 C.ar    1  UNL1        0.0694
     27 CL         61.9714   82.8116   14.7335 Cl      1  UNL1       -0.0813
     28 C          62.5318   85.0197   15.9826 C.ar    1  UNL1        0.0268
     29 C          63.5569   91.6952   13.0490 C.3     1  UNL1        0.0967
     30 N          64.7479   92.3421   12.4062 N.3     1  UNL1       -0.2710
     31 C          64.9761   92.5017   10.9322 C.3     1  UNL1        0.0722
     32 C          66.2890   93.2012   10.7395 C.3     1  UNL1        0.0188
     33 C          66.8722   93.4739   12.0944 C.3     1  UNL1        0.0188
     34 C          65.9197   92.9429   13.1244 C.3     1  UNL1        0.0722
@<TRIPOS>BOND
     1    19    20    1
     2    20    18    1
     3    18    14    1
     4    14    15    2
     5    14    16   am
     6    16    17    1
     7    16     1    1
     8     1    29    1
     9    29    30    1
    10    30    31    1
    11    31    32    1
    12    32    33    1
    13    33    34    1
    14     1     2    1
    15     2     3   ar
    16     3     4   ar
    17     4     5   ar
    18     5     8    1
    19     8     9   ar
    20     9    10   ar
    21    10    11   ar
    22    11    12   ar
    23    12    13   ar
    24     5     6   ar
    25     6     7   ar
    26    20    21    1
    27    21    22   ar
    28    22    23   ar
    29    23    24   ar
    30    24    25    1
    31    24    26   ar
    32    26    27    1
    33    26    28   ar
    34    34    30    1
    35     7     2   ar
    36    28    21   ar
    37    13     8   ar
@<TRIPOS>MOLECULE
*****
 34 37 0 0 0
SMALL
GASTEIGER

@<TRIPOS>ATOM
      1 C          62.6873   89.3654   12.2384 C.3     1  UNL1        0.1139
      2 C          63.5084   90.5501   11.8231 C.ar    1  UNL1       -0.0029
      3 C          64.4658   91.1762   12.7933 C.ar    1  UNL1       -0.0026
      4 C          65.2868   92.3608   12.3780 C.ar    1  UNL1       -0.0003
      5 C          65.1504   92.9193   10.9926 C.ar    1  UNL1       -0.0000
      6 C          64.1930   92.2932   10.0224 C.ar    1  UNL1       -0.0003
      7 C          63.3720   91.1086   10.4377 C.ar    1  UNL1       -0.0026
      8 C          65.9715   94.1040   10.5773 C.ar    1  UNL1       -0.0000
      9 C          65.7905   95.4220   11.2702 C.ar    1  UNL1       -0.0000
     10 C          66.6116   96.6067   10.8549 C.ar    1  UNL1        0.0000
     11 C          67.6137   96.4733    9.7468 C.ar    1  UNL1        0.0000
     12 C          67.7947   95.1553    9.0538 C.ar    1  UNL1        0.0000
     13 C          66.9736   93.9707    9.4691 C.ar    1  UNL1       -0.0000
     14 C          63.9240   88.2517   14.2335 C.2     1  UNL1        0.2461
     15 O          63.8284   89.5328   15.0079 O.2     1  UNL1       -0.2730
     16 N          63.3535   88.1680   12.8487 N.am    1  UNL1       -0.2729
     17 C          63.4491   86.8869   12.0743 C.3     1  UNL1        0.1152
     18 C          64.5902   87.0543   14.8438 C.3     1  UNL1        0.1773
     19 C          63.2208   86.2389   16.8956 C.3     1  UNL1        0.1126
     20 N          63.7645   85.9992   15.5183 N.pl3   1  UNL1       -0.2980
     21 C          63.4826   84.7044   14.8155 C.ar    1  UNL1        0.0491
     22 C          62.4308   83.7762   15.3468 C.ar    1  UNL1        0.0154
     23 C          62.1489   82.4814   14.6440 C.ar    1  UNL1        0.0135
     24 C          62.9187   82.1147   13.4100 C.ar    1  UNL1        0.0683
     25 CL         62.6367   80.8198   12.7072 Cl      1  UNL1       -0.0814
     26 C          63.9705   83.0429   12.8787 C.ar    1  UNL1        0.0694
     27 CL         64.7403   82.6762   11.6446 Cl      1  UNL1       -0.0813
     28 C          64.2524   84.3378   13.5815 C.ar    1  UNL1        0.0268
     29 C          61.2001   89.3781   12.0433 C.3     1  UNL1        0.0967
     30 N          60.6058   88.8473   10.7724 N.3     1  UNL1       -0.2710
     31 C          60.2141   89.6615    9.5750 C.3     1  UNL1        0.0722
     32 C          59.6650   88.7265    8.5384 C.3     1  UNL1        0.0188
     33 C          59.7174   87.3346    9.0952 C.3     1  UNL1        0.0188
     34 C          60.2989   87.4093   10.4759 C.3     1  UNL1        0.0722
@<TRIPOS>BOND
     1    19    20    1
     2    20    18    1
     3    18    14    1
     4    14    15    2
     5    14    16   am
     6    16    17    1
     7    16     1    1
     8     1    29    1
     9    29    30    1
    10    30    31    1
    11    31    32    1
    12    32    33    1
    13    33    34    1
    14     1     2    1
    15     2     3   ar
    16     3     4   ar
    17     4     5   ar
    18     5     8    1
    19     8     9   ar
    20     9    10   ar
    21    10    11   ar
    22    11    12   ar
    23    12    13   ar
    24     5     6   ar
    25     6     7   ar
    26    20    21    1
    27    21    22   ar
    28    22    23   ar
    29    23    24   ar
    30    24    25    1
    31    24    26   ar
    32    26    27    1
    33    26    28   ar
    34    34    30    1
    35     7     2   ar
    36    28    21   ar
    37    13     8   ar
@<TRIPOS>MOLECULE
*****
 34 37 0 0 0
SMALL
GASTEIGER

@<TRIPOS>ATOM
      1 C          63.1449   88.7215   12.3137 C.3     1  UNL1        0.1139
      2 C          63.0535   87.2264   12.3937 C.ar    1  UNL1       -0.0029
      3 C          62.3439   86.4597   11.3174 C.ar    1  UNL1       -0.0026
      4 C          62.2524   84.9647   11.3974 C.ar    1  UNL1       -0.0003
      5 C          62.8706   84.2363   12.5539 C.ar    1  UNL1       -0.0000
      6 C          63.5802   85.0030   13.6303 C.ar    1  UNL1       -0.0003
      7 C          63.6716   86.4981   13.5502 C.ar    1  UNL1       -0.0026
      8 C          62.7791   82.7412   12.6340 C.ar    1  UNL1       -0.0000
      9 C          63.0737   81.9059   11.4235 C.ar    1  UNL1       -0.0000
     10 C          62.9823   80.4108   11.5035 C.ar    1  UNL1        0.0000
     11 C          62.5961   79.7511   12.7941 C.ar    1  UNL1        0.0000
     12 C          62.3015   80.5865   14.0047 C.ar    1  UNL1        0.0000
     13 C          62.3930   82.0815   13.9246 C.ar    1  UNL1       -0.0000
     14 C          64.5134   90.8394   12.9398 C.2     1  UNL1        0.2461
     15 O          64.1710   91.4525   11.6144 O.2     1  UNL1       -0.2730
     16 N          64.0003   89.4739   13.2895 N.am    1  UNL1       -0.2729
     17 C          64.3427   88.8608   14.6150 C.3     1  UNL1        0.1152
     18 C          65.3688   91.5918   13.9156 C.3     1  UNL1        0.1773
     19 C          67.9090   91.8802   14.3782 C.3     1  UNL1        0.1126
     20 N          66.7161   92.0999   13.4957 N.pl3   1  UNL1       -0.2980
     21 C          66.8706   92.8276   12.1932 C.ar    1  UNL1        0.0491
     22 C          66.2392   94.1756   12.0078 C.ar    1  UNL1        0.0154
     23 C          66.3937   94.9034   10.7053 C.ar    1  UNL1        0.0135
     24 C          67.1796   94.2832    9.5882 C.ar    1  UNL1        0.0683
     25 CL         67.3340   95.0111    8.2857 Cl      1  UNL1       -0.0814
     26 C          67.8109   92.9353    9.7736 C.ar    1  UNL1        0.0694
     27 CL         68.5968   92.3151    8.6566 Cl      1  UNL1       -0.0813
     28 C          67.6565   92.2075   11.0762 C.ar    1  UNL1        0.0268
     29 C          62.3810   89.4642   11.2578 C.3     1  UNL1        0.0967
     30 N          60.9443   89.8288   11.4882 N.3     1  UNL1       -0.2710
     31 C          59.9426   89.0214   12.2594 C.3     1  UNL1        0.0722
     32 C          58.6363   89.7584   12.2358 C.3     1  UNL1        0.0188
     33 C          58.8308   91.0213   11.4499 C.3     1  UNL1        0.0188
     34 C          60.2572   91.0648   10.9880 C.3     1  UNL1        0.0722
@<TRIPOS>BOND
     1    19    20    1
     2    20    18    1
     3    18    14    1
     4    14    15    2
     5    14    16   am
     6    16    17    1
     7    16     1    1
     8     1    29    1
     9    29    30    1
    10    30    31    1
    11    31    32    1
    12    32    33    1
    13    33    34    1
    14     1     2    1
    15     2     3   ar
    16     3     4   ar
    17     4     5   ar
    18     5     8    1
    19     8     9   ar
    20     9    10   ar
    21    10    11   ar
    22    11    12   ar
    23    12    13   ar
    24     5     6   ar
    25     6     7   ar
    26    20    21    1
    27    21    22   ar
    28    22    23   ar
    29    23    24   ar
    30    24    25    1
    31    24    26   ar
    32    26    27    1
    33    26    28   ar
    34    34    30    1
    35     7     2   ar
    36    28    21   ar
    37    13     8   ar
@<TRIPOS>MOLECULE
*****
 34 37 0 0 0
SMALL
GASTEIGER

@<TRIPOS>ATOM
      1 C          63.6618   90.0786   14.5621 C.3     1  UNL1        0.1139
      2 C          62.9503   89.5721   13.3425 C.ar    1  UNL1       -0.0029
      3 C          61.7536   90.3055   12.8136 C.ar    1  UNL1       -0.0026
      4 C          61.0421   89.7989   11.5941 C.ar    1  UNL1       -0.0003
      5 C          61.5274   88.5589   10.9036 C.ar    1  UNL1       -0.0000
      6 C          62.7241   87.8254   11.4326 C.ar    1  UNL1       -0.0003
      7 C          63.4356   88.3320   12.6520 C.ar    1  UNL1       -0.0026
      8 C          60.8159   88.0523    9.6841 C.ar    1  UNL1       -0.0000
      9 C          60.0405   89.0017    8.8195 C.ar    1  UNL1       -0.0000
     10 C          59.3290   88.4951    7.6000 C.ar    1  UNL1        0.0000
     11 C          59.3929   87.0391    7.2451 C.ar    1  UNL1        0.0000
     12 C          60.1683   86.0897    8.1097 C.ar    1  UNL1        0.0000
     13 C          60.8797   86.5963    9.3291 C.ar    1  UNL1       -0.0000
     14 C          65.0920   91.6628   13.0804 C.2     1  UNL1        0.2461
     15 O          64.4996   91.0453   11.8485 O.2     1  UNL1       -0.2730
     16 N          64.6731   91.1795   14.4373 N.am    1  UNL1       -0.2729
     17 C          65.2654   91.7970   15.6693 C.3     1  UNL1        0.1152
     18 C          66.1032   92.7636   12.9557 C.3     1  UNL1        0.1773
     19 C          68.2172   91.8252   11.7723 C.3     1  UNL1        0.1126
     20 N          67.0583   92.7771   11.7991 N.pl3   1  UNL1       -0.2980
     21 C          66.8545   93.7426   10.6694 C.ar    1  UNL1        0.0491
     22 C          67.6924   93.6344    9.4300 C.ar    1  UNL1        0.0154
     23 C          67.4886   94.5999    8.3002 C.ar    1  UNL1        0.0135
     24 C          66.4468   95.6735    8.4099 C.ar    1  UNL1        0.0683
     25 CL         66.2430   96.6390    7.2801 Cl      1  UNL1       -0.0814
     26 C          65.6089   95.7817    9.6493 C.ar    1  UNL1        0.0694
     27 CL         64.5672   96.8554    9.7590 Cl      1  UNL1       -0.0813
     28 C          65.8127   94.8163   10.7791 C.ar    1  UNL1        0.0268
     29 C          63.3621   89.4844   15.9063 C.3     1  UNL1        0.0967
     30 N          63.4341   87.9990   16.1027 N.3     1  UNL1       -0.2710
     31 C          64.2703   87.0437   15.3038 C.3     1  UNL1        0.0722
     32 C          64.0356   85.6624   15.8397 C.3     1  UNL1        0.0188
     33 C          63.0543   85.7642   16.9697 C.3     1  UNL1        0.0188
     34 C          62.6826   87.2083   17.1322 C.3     1  UNL1        0.0722
@<TRIPOS>BOND
     1    19    20    1
     2    20    18    1
     3    18    14    1
     4    14    15    2
     5    14    16   am
     6    16    17    1
     7    16     1    1
     8     1    29    1
     9    29    30    1
    10    30    31    1
    11    31    32    1
    12    32    33    1
    13    33    34    1
    14     1     2    1
    15     2     3   ar
    16     3     4   ar
    17     4     5   ar
    18     5     8    1
    19     8     9   ar
    20     9    10   ar
    21    10    11   ar
    22    11    12   ar
    23    12    13   ar
    24     5     6   ar
    25     6     7   ar
    26    20    21    1
    27    21    22   ar
    28    22    23   ar
    29    23    24   ar
    30    24    25    1
    31    24    26   ar
    32    26    27    1
    33    26    28   ar
    34    34    30    1
    35     7     2   ar
    36    28    21   ar
    37    13     8   ar
@<TRIPOS>MOLECULE
*****
 34 37 0 0 0
SMALL
GASTEIGER

@<TRIPOS>ATOM
      1 C          64.1449   90.3871   13.5326 C.3     1  UNL1        0.1139
      2 C          63.2946   89.8444   12.4224 C.ar    1  UNL1       -0.0029
      3 C          62.5950   90.7840   11.4856 C.ar    1  UNL1       -0.0026
      4 C          61.7448   90.2412   10.3754 C.ar    1  UNL1       -0.0003
      5 C          61.5943   88.7589   10.2020 C.ar    1  UNL1       -0.0000
      6 C          62.2939   87.8193   11.1388 C.ar    1  UNL1       -0.0003
      7 C          63.1441   88.3621   12.2490 C.ar    1  UNL1       -0.0026
      8 C          60.7440   88.2162    9.0917 C.ar    1  UNL1       -0.0000
      9 C          59.9600   89.1527    8.2210 C.ar    1  UNL1       -0.0000
     10 C          59.1098   88.6100    7.1108 C.ar    1  UNL1        0.0000
     11 C          59.0436   87.1307    6.8712 C.ar    1  UNL1        0.0000
     12 C          59.8277   86.1942    7.7420 C.ar    1  UNL1        0.0000
     13 C          60.6779   86.7369    8.8522 C.ar    1  UNL1       -0.0000
     14 C          63.3727   89.1298   15.6711 C.2     1  UNL1        0.2461
     15 O          61.9645   89.5876   15.4318 O.2     1  UNL1       -0.2730
     16 N          64.4629   89.5296   14.7215 N.am    1  UNL1       -0.2729
     17 C          65.8711   89.0718   14.9609 C.3     1  UNL1        0.1152
     18 C          63.6907   88.2723   16.8600 C.3     1  UNL1        0.1773
     19 C          62.1678   86.5743   18.1040 C.3     1  UNL1        0.1126
     20 N          63.0991   86.8986   16.9737 N.pl3   1  UNL1       -0.2980
     21 C          63.4388   85.8493   15.9571 C.ar    1  UNL1        0.0491
     22 C          64.6855   85.9790   15.1332 C.ar    1  UNL1        0.0154
     23 C          65.0252   84.9297   14.1166 C.ar    1  UNL1        0.0135
     24 C          64.1182   83.7506   13.9239 C.ar    1  UNL1        0.0683
     25 CL         64.4580   82.7012   12.9073 Cl      1  UNL1       -0.0814
     26 C          62.8716   83.6208   14.7479 C.ar    1  UNL1        0.0694
     27 CL         61.9646   82.4417   14.5552 Cl      1  UNL1       -0.0813
     28 C          62.5318   84.6702   15.7645 C.ar    1  UNL1        0.0268
     29 C          64.6770   91.7873   13.4540 C.3     1  UNL1        0.0967
     30 N          65.9189   92.1612   14.2078 N.3     1  UNL1       -0.2710
     31 C          67.3206   92.1149   13.6758 C.3     1  UNL1        0.0722
     32 C          68.2451   92.5721   14.7652 C.3     1  UNL1        0.0188
     33 C          67.4145   92.9008   15.9703 C.3     1  UNL1        0.0188
     34 C          65.9769   92.6468   15.6258 C.3     1  UNL1        0.0722
@<TRIPOS>BOND
     1    19    20    1
     2    20    18    1
     3    18    14    1
     4    14    15    2
     5    14    16   am
     6    16    17    1
     7    16     1    1
     8     1    29    1
     9    29    30    1
    10    30    31    1
    11    31    32    1
    12    32    33    1
    13    33    34    1
    14     1     2    1
    15     2     3   ar
    16     3     4   ar
    17     4     5   ar
    18     5     8    1
    19     8     9   ar
    20     9    10   ar
    21    10    11   ar
    22    11    12   ar
    23    12    13   ar
    24     5     6   ar
    25     6     7   ar
    26    20    21    1
    27    21    22   ar
    28    22    23   ar
    29    23    24   ar
    30    24    25    1
    31    24    26   ar
    32    26    27    1
    33    26    28   ar
    34    34    30    1
    35     7     2   ar
    36    28    21   ar
    37    13     8   ar
@<TRIPOS>MOLECULE
*****
 34 37 0 0 0
SMALL
GASTEIGER

@<TRIPOS>ATOM
      1 C          61.9895   89.2472   10.3642 C.3     1  UNL1        0.1139
      2 C          62.1798   87.7733   10.5678 C.ar    1  UNL1       -0.0029
      3 C          61.9753   87.1712   11.9264 C.ar    1  UNL1       -0.0026
      4 C          62.1655   85.6974   12.1299 C.ar    1  UNL1       -0.0003
      5 C          62.5604   84.8255   10.9749 C.ar    1  UNL1       -0.0000
      6 C          62.7649   85.4276    9.6164 C.ar    1  UNL1       -0.0003
      7 C          62.5746   86.9014    9.4128 C.ar    1  UNL1       -0.0026
      8 C          62.7506   83.3516   11.1785 C.ar    1  UNL1       -0.0000
      9 C          62.3660   82.7188   12.4829 C.ar    1  UNL1       -0.0000
     10 C          62.5562   81.2449   12.6866 C.ar    1  UNL1        0.0000
     11 C          63.1312   80.4038   11.5857 C.ar    1  UNL1        0.0000
     12 C          63.5159   81.0366   10.2812 C.ar    1  UNL1        0.0000
     13 C          63.3256   82.5105   10.0776 C.ar    1  UNL1       -0.0000
     14 C          62.8100   90.4695   12.5050 C.2     1  UNL1        0.2461
     15 O          61.7783   89.7425   13.3155 O.2     1  UNL1       -0.2730
     16 N          62.9156   90.2219   11.0293 N.am    1  UNL1       -0.2729
     17 C          63.9473   90.9489   10.2188 C.3     1  UNL1        0.1152
     18 C          63.7360   91.4442   13.1701 C.3     1  UNL1        0.1773
     19 C          65.6715   91.8641   14.8516 C.3     1  UNL1        0.1126
     20 N          64.5171   91.0296   14.3817 N.pl3   1  UNL1       -0.2980
     21 C          64.1437   89.7804   15.1234 C.ar    1  UNL1        0.0491
     22 C          63.3548   89.8712   16.3960 C.ar    1  UNL1        0.0154
     23 C          62.9814   88.6220   17.1376 C.ar    1  UNL1        0.0135
     24 C          63.3968   87.2821   16.6068 C.ar    1  UNL1        0.0683
     25 CL         63.0234   86.0329   17.3485 Cl      1  UNL1       -0.0814
     26 C          64.1857   87.1912   15.3343 C.ar    1  UNL1        0.0694
     27 CL         64.6012   85.8512   14.8034 Cl      1  UNL1       -0.0813
     28 C          64.5592   88.4404   14.5925 C.ar    1  UNL1        0.0268
     29 C          60.8732   89.7464    9.4956 C.3     1  UNL1        0.0967
     30 N          60.0730   88.7800    8.6734 N.3     1  UNL1       -0.2710
     31 C          59.6746   88.9619    7.2388 C.3     1  UNL1        0.0722
     32 C          58.8861   87.7564    6.8203 C.3     1  UNL1        0.0188
     33 C          58.7973   86.8295    7.9963 C.3     1  UNL1        0.0188
     34 C          59.5308   87.4621    9.1416 C.3     1  UNL1        0.0722
@<TRIPOS>BOND
     1    19    20    1
     2    20    18    1
     3    18    14    1
     4    14    15    2
     5    14    16   am
     6    16    17    1
     7    16     1    1
     8     1    29    1
     9    29    30    1
    10    30    31    1
    11    31    32    1
    12    32    33    1
    13    33    34    1
    14     1     2    1
    15     2     3   ar
    16     3     4   ar
    17     4     5   ar
    18     5     8    1
    19     8     9   ar
    20     9    10   ar
    21    10    11   ar
    22    11    12   ar
    23    12    13   ar
    24     5     6   ar
    25     6     7   ar
    26    20    21    1
    27    21    22   ar
    28    22    23   ar
    29    23    24   ar
    30    24    25    1
    31    24    26   ar
    32    26    27    1
    33    26    28   ar
    34    34    30    1
    35     7     2   ar
    36    28    21   ar
    37    13     8   ar
@<TRIPOS>MOLECULE
*****
 34 37 0 0 0
SMALL
GASTEIGER

@<TRIPOS>ATOM
      1 C          64.1227   89.1125   14.2853 C.3     1  UNL1        0.1139
      2 C          63.2682   88.8938   13.0720 C.ar    1  UNL1       -0.0029
      3 C          63.2172   87.5418   12.4244 C.ar    1  UNL1       -0.0026
      4 C          62.3627   87.3232   11.2111 C.ar    1  UNL1       -0.0003
      5 C          61.5593   88.4566   10.6454 C.ar    1  UNL1       -0.0000
      6 C          61.6104   89.8086   11.2930 C.ar    1  UNL1       -0.0003
      7 C          62.4648   90.0272   12.5063 C.ar    1  UNL1       -0.0026
      8 C          60.7048   88.2379    9.4321 C.ar    1  UNL1       -0.0000
      9 C          60.3560   89.3938    8.5422 C.ar    1  UNL1       -0.0000
     10 C          59.5015   89.1751    7.3289 C.ar    1  UNL1        0.0000
     11 C          58.9959   87.8004    7.0055 C.ar    1  UNL1        0.0000
     12 C          59.3448   86.6444    7.8955 C.ar    1  UNL1        0.0000
     13 C          60.1993   86.8632    9.1087 C.ar    1  UNL1       -0.0000
     14 C          65.2962   91.4162   14.0277 C.2     1  UNL1        0.2461
     15 O          65.9642   90.9356   12.7736 O.2     1  UNL1       -0.2730
     16 N          64.3755   90.5046   14.7836 N.am    1  UNL1       -0.2729
     17 C          63.7075   90.9851   16.0377 C.3     1  UNL1        0.1152
     18 C          65.5490   92.8082   14.5260 C.3     1  UNL1        0.1773
     19 C          67.8072   94.0266   14.9334 C.3     1  UNL1        0.1126
     20 N          66.7150   93.5925   14.0013 N.pl3   1  UNL1       -0.2980
     21 C          66.7889   93.9425   12.5446 C.ar    1  UNL1        0.0491
     22 C          66.2722   95.2663   12.0643 C.ar    1  UNL1        0.0154
     23 C          66.3461   95.6164   10.6076 C.ar    1  UNL1        0.0135
     24 C          66.9366   94.6427    9.6312 C.ar    1  UNL1        0.0683
     25 CL         67.0104   94.9929    8.1745 Cl      1  UNL1       -0.0814
     26 C          67.4532   93.3190   10.1115 C.ar    1  UNL1        0.0694
     27 CL         68.0437   92.3453    9.1352 Cl      1  UNL1       -0.0813
     28 C          67.3794   92.9689   11.5683 C.ar    1  UNL1        0.0268
     29 C          64.7244   87.9392   15.0003 C.3     1  UNL1        0.0967
     30 N          63.8620   87.0598   15.8564 N.3     1  UNL1       -0.2710
     31 C          63.6194   85.5939   15.6509 C.3     1  UNL1        0.0722
     32 C          62.6982   85.1200   16.7358 C.3     1  UNL1        0.0188
     33 C          62.3715   86.2931   17.6117 C.3     1  UNL1        0.0188
     34 C          63.0908   87.4919   17.0682 C.3     1  UNL1        0.0722
@<TRIPOS>BOND
     1    19    20    1
     2    20    18    1
     3    18    14    1
     4    14    15    2
     5    14    16   am
     6    16    17    1
     7    16     1    1
     8     1    29    1
     9    29    30    1
    10    30    31    1
    11    31    32    1
    12    32    33    1
    13    33    34    1
    14     1     2    1
    15     2     3   ar
    16     3     4   ar
    17     4     5   ar
    18     5     8    1
    19     8     9   ar
    20     9    10   ar
    21    10    11   ar
    22    11    12   ar
    23    12    13   ar
    24     5     6   ar
    25     6     7   ar
    26    20    21    1
    27    21    22   ar
    28    22    23   ar
    29    23    24   ar
    30    24    25    1
    31    24    26   ar
    32    26    27    1
    33    26    28   ar
    34    34    30    1
    35     7     2   ar
    36    28    21   ar
    37    13     8   ar
