@<TRIPOS>MOLECULE
*****
 47 50 0 0 0
SMALL
GASTEIGER

@<TRIPOS>ATOM
      1 C          61.9943   89.3076   10.1210 C.3     1  UNL1        0.0503
      2 C          62.5253   88.3670   11.1618 C.ar    1  UNL1        0.0465
      3 C          62.5568   86.8916   10.8933 C.ar    1  UNL1        0.0703
      4 C          63.0878   85.9511   11.9341 C.ar    1  UNL1        0.2654
      5 O          63.1193   84.4756   11.6656 O.2     1  UNL1       -0.2668
      6 N          63.5873   86.4859   13.2435 N.ar    1  UNL1       -0.2470
      7 C          63.5557   87.9613   13.5120 C.ar    1  UNL1        0.3338
      8 O          63.9070   88.1981   14.4004 O.2     1  UNL1       -0.2462
      9 N          63.0248   88.9019   12.4712 N.ar    1  UNL1       -0.2806
     10 C          62.0573   86.3568    9.5839 C.ar    1  UNL1        0.0362
     11 C          62.9609   85.5303    8.7176 C.ar    1  UNL1        0.0026
     12 C          62.4614   84.9954    7.4082 C.ar    1  UNL1        0.0033
     13 C          61.0583   85.2870    6.9651 C.ar    1  UNL1        0.0392
     14 C          60.1548   86.1135    7.8315 C.ar    1  UNL1        0.1658
     15 C          60.6543   86.6484    9.1408 C.ar    1  UNL1        0.1739
     16 F          59.7507   87.4749   10.0071 F       1  UNL1       -0.2010
     17 O          58.7517   86.4052    7.3884 O.3     1  UNL1       -0.4732
     18 C          58.3022   87.8248    7.2071 C.3     1  UNL1        0.2055
     19 C          59.3156   88.9275    7.1239 C.3     1  UNL1        0.0477
     20 C          59.4517   89.7275    5.8624 C.3     1  UNL1        0.0097
     21 C          59.0790   91.1804    5.8517 C.3     1  UNL1        0.0418
     22 C          58.1612   91.7115    4.7908 C.2     1  UNL1        0.0503
     23 O          58.7296   92.3597    3.5632 O.co2   1  UNL1       -0.5492
     24 O          56.6751   91.5944    4.9574 O.co2   1  UNL1       -0.5492
     25 C          64.1183   85.5453   14.2843 C.3     1  UNL1        0.1334
     26 C          63.1809   84.6345   15.0203 C.3     1  UNL1        0.0968
     27 N          62.4528   85.1299   16.2347 N.3     1  UNL1       -0.3172
     28 H          61.8633   84.3845   16.6053 H       1  UNL1        0.1192
     29 H          61.8714   85.9285   15.9803 H       1  UNL1        0.1192
     30 C          62.9716   83.2283   14.5421 C.ar    1  UNL1       -0.0063
     31 C          61.6132   82.5987   14.6353 C.ar    1  UNL1       -0.0029
     32 C          61.4039   81.1925   14.1571 C.ar    1  UNL1       -0.0003
     33 C          62.5529   80.4159   13.5855 C.ar    1  UNL1       -0.0000
     34 C          63.9112   81.0454   13.4922 C.ar    1  UNL1       -0.0003
     35 C          64.1205   82.4516   13.9705 C.ar    1  UNL1       -0.0029
     36 C          62.9933   90.3773   12.7397 C.3     1  UNL1        0.1391
     37 C          64.1954   91.2210   12.4347 C.ar    1  UNL1        0.0319
     38 C          64.4518   91.6813   11.0303 C.ar    1  UNL1        0.1379
     39 F          63.9033   91.4918   10.2354 F       1  UNL1       -0.2044
     40 C          65.6540   92.5250   10.7252 C.ar    1  UNL1        0.0294
     41 C          66.5996   92.9084   11.8246 C.ar    1  UNL1        0.0022
     42 C          66.3432   92.4482   13.2290 C.ar    1  UNL1        0.0037
     43 C          65.1411   91.6045   13.5341 C.ar    1  UNL1        0.0714
     44 C          64.8847   91.1442   14.9385 C.3     1  UNL1        0.4184
     45 F          64.6283   90.6839   16.3429 F       1  UNL1       -0.1659
     46 F          66.1526   90.3433   14.9075 F       1  UNL1       -0.1659
     47 F          63.6168   91.9451   14.9695 F       1  UNL1       -0.1659
@<TRIPOS>UNITY_ATOM_ATTR
23 1
charge -1
@<TRIPOS>BOND
     1     1     2    1
     2     2     3   ar
     3     3    10    1
     4    10    11   ar
     5    11    12   ar
     6    12    13   ar
     7    13    14   ar
     8    14    17    1
     9    17    18    1
    10    18    19    1
    11    19    20    1
    12    20    21    1
    13    21    22    1
    14    22    23   ar
    15    22    24   ar
    16    14    15   ar
    17    15    16    1
    18     3     4   ar
    19     4     5    2
    20     4     6   ar
    21     6    25    1
    22    25    26    1
    23    26    27    1
    24    26    30    1
    25    30    31   ar
    26    31    32   ar
    27    32    33   ar
    28    33    34   ar
    29    34    35   ar
    30     6     7   ar
    31     7     8    2
    32     7     9   ar
    33     9    36    1
    34    36    37    1
    35    37    38   ar
    36    38    39    1
    37    38    40   ar
    38    40    41   ar
    39    41    42   ar
    40    42    43   ar
    41    43    44    1
    42    44    45    1
    43    44    46    1
    44    44    47    1
    45     9     2   ar
    46    43    37   ar
    47    15    10   ar
    48    35    30   ar
    49    27    28    1
    50    27    29    1
@<TRIPOS>MOLECULE
*****
 47 50 0 0 0
SMALL
GASTEIGER

@<TRIPOS>ATOM
      1 C          65.0495   86.6749   14.7987 C.3     1  UNL1        0.0503
      2 C          63.9366   86.8242   13.8042 C.ar    1  UNL1        0.0465
      3 C          63.2137   88.1324   13.6783 C.ar    1  UNL1        0.0703
      4 C          62.1008   88.2817   12.6837 C.ar    1  UNL1        0.2654
      5 O          61.3779   89.5900   12.5579 O.2     1  UNL1       -0.2668
      6 N          61.7107   87.1227   11.8151 N.ar    1  UNL1       -0.2470
      7 C          62.4336   85.8145   11.9410 C.ar    1  UNL1        0.3338
      8 O          62.0949   85.1270   11.3236 O.2     1  UNL1       -0.2462
      9 N          63.5466   85.6652   12.9355 N.ar    1  UNL1       -0.2806
     10 C          63.6037   89.2915   14.5469 C.ar    1  UNL1        0.0362
     11 C          63.1852   89.3237   15.9870 C.ar    1  UNL1        0.0026
     12 C          63.5752   90.4828   16.8556 C.ar    1  UNL1        0.0033
     13 C          64.3838   91.6096   16.2842 C.ar    1  UNL1        0.0392
     14 C          64.8023   91.5773   14.8440 C.ar    1  UNL1        0.1658
     15 C          64.4123   90.4183   13.9755 C.ar    1  UNL1        0.1739
     16 F          64.8309   90.3860   12.5354 F       1  UNL1       -0.2010
     17 O          65.6109   92.7041   14.2726 O.3     1  UNL1       -0.4732
     18 C          67.0826   92.5290   14.0409 C.3     1  UNL1        0.2055
     19 C          67.5919   92.2013   12.6686 C.3     1  UNL1        0.0477
     20 C          66.9030   92.7610   11.4594 C.3     1  UNL1        0.0097
     21 C          67.2113   92.2107   10.0985 C.3     1  UNL1        0.0418
     22 C          68.2224   92.8925    9.2252 C.2     1  UNL1        0.0503
     23 O          68.8935   92.1319    8.1201 O.co2   1  UNL1       -0.5492
     24 O          68.5625   94.3350    9.4569 O.co2   1  UNL1       -0.5492
     25 C          60.5978   87.2719   10.8206 C.3     1  UNL1        0.1334
     26 C          60.9076   87.6217    9.3952 C.3     1  UNL1        0.0968
     27 N          60.8525   89.0514    8.9447 N.3     1  UNL1       -0.3172
     28 H          61.0897   89.1051    7.9541 H       1  UNL1        0.1192
     29 H          61.5188   89.6038    9.4844 H       1  UNL1        0.1192
     30 C          61.2725   86.5417    8.4203 C.ar    1  UNL1       -0.0063
     31 C          62.6743   86.0091    8.3809 C.ar    1  UNL1       -0.0029
     32 C          63.0391   84.9292    7.4059 C.ar    1  UNL1       -0.0003
     33 C          62.0022   84.3817    6.4704 C.ar    1  UNL1       -0.0000
     34 C          60.6005   84.9142    6.5098 C.ar    1  UNL1       -0.0003
     35 C          60.2356   85.9942    7.4847 C.ar    1  UNL1       -0.0029
     36 C          64.2695   84.3569   13.0614 C.3     1  UNL1        0.1391
     37 C          63.4928   83.0778   13.1652 C.ar    1  UNL1        0.0319
     38 C          63.5736   82.0600   12.0663 C.ar    1  UNL1        0.1379
     39 F          64.0998   82.1241   11.2372 F       1  UNL1       -0.2044
     40 C          62.7969   80.7809   12.1702 C.ar    1  UNL1        0.0294
     41 C          61.9395   80.5197   13.3729 C.ar    1  UNL1        0.0022
     42 C          61.8587   81.5375   14.4718 C.ar    1  UNL1        0.0037
     43 C          62.6353   82.8165   14.3680 C.ar    1  UNL1        0.0714
     44 C          62.5546   83.8344   15.4669 C.3     1  UNL1        0.4184
     45 F          62.4738   84.8522   16.5657 F       1  UNL1       -0.1659
     46 F          61.2614   84.3422   14.9014 F       1  UNL1       -0.1659
     47 F          63.8478   83.3265   16.0323 F       1  UNL1       -0.1659
@<TRIPOS>UNITY_ATOM_ATTR
23 1
charge -1
@<TRIPOS>BOND
     1     1     2    1
     2     2     3   ar
     3     3    10    1
     4    10    11   ar
     5    11    12   ar
     6    12    13   ar
     7    13    14   ar
     8    14    17    1
     9    17    18    1
    10    18    19    1
    11    19    20    1
    12    20    21    1
    13    21    22    1
    14    22    23   ar
    15    22    24   ar
    16    14    15   ar
    17    15    16    1
    18     3     4   ar
    19     4     5    2
    20     4     6   ar
    21     6    25    1
    22    25    26    1
    23    26    27    1
    24    26    30    1
    25    30    31   ar
    26    31    32   ar
    27    32    33   ar
    28    33    34   ar
    29    34    35   ar
    30     6     7   ar
    31     7     8    2
    32     7     9   ar
    33     9    36    1
    34    36    37    1
    35    37    38   ar
    36    38    39    1
    37    38    40   ar
    38    40    41   ar
    39    41    42   ar
    40    42    43   ar
    41    43    44    1
    42    44    45    1
    43    44    46    1
    44    44    47    1
    45     9     2   ar
    46    43    37   ar
    47    15    10   ar
    48    35    30   ar
    49    27    28    1
    50    27    29    1
@<TRIPOS>MOLECULE
*****
 47 50 0 0 0
SMALL
GASTEIGER

@<TRIPOS>ATOM
      1 C          65.0164   86.7687   14.9303 C.3     1  UNL1        0.0503
      2 C          63.9166   86.9458   13.9258 C.ar    1  UNL1        0.0465
      3 C          63.2517   88.2812   13.7692 C.ar    1  UNL1        0.0703
      4 C          62.1519   88.4583   12.7647 C.ar    1  UNL1        0.2654
      5 O          61.4870   89.7938   12.6081 O.2     1  UNL1       -0.2668
      6 N          61.7169   87.2999   11.9168 N.ar    1  UNL1       -0.2470
      7 C          62.3818   85.9645   12.0734 C.ar    1  UNL1        0.3338
      8 O          62.0170   85.2799   11.4676 O.2     1  UNL1       -0.2462
      9 N          63.4816   85.7874   13.0779 N.ar    1  UNL1       -0.2806
     10 C          63.6867   89.4397   14.6171 C.ar    1  UNL1        0.0362
     11 C          63.2571   89.5220   16.0519 C.ar    1  UNL1        0.0026
     12 C          63.6921   90.6804   16.8998 C.ar    1  UNL1        0.0033
     13 C          64.5566   91.7565   16.3128 C.ar    1  UNL1        0.0392
     14 C          64.9863   91.6742   14.8780 C.ar    1  UNL1        0.1658
     15 C          64.5513   90.5157   14.0301 C.ar    1  UNL1        0.1739
     16 F          64.9809   90.4334   12.5953 F       1  UNL1       -0.2010
     17 O          65.8509   92.7502   14.2910 O.3     1  UNL1       -0.4732
     18 C          66.3299   92.6379   12.8740 C.3     1  UNL1        0.2055
     19 C          65.6379   93.4034   11.7854 C.3     1  UNL1        0.0477
     20 C          65.9802   93.1399   10.3490 C.3     1  UNL1        0.0097
     21 C          67.1779   92.3051   10.0043 C.3     1  UNL1        0.0418
     22 C          68.2813   92.8850    9.1700 C.2     1  UNL1        0.0503
     23 O          68.9681   92.0372    8.1406 O.co2   1  UNL1       -0.5492
     24 O          68.6980   94.3127    9.3649 O.co2   1  UNL1       -0.5492
     25 C          60.6171   87.4770   10.9123 C.3     1  UNL1        0.1334
     26 C          60.9494   87.7949    9.4846 C.3     1  UNL1        0.0968
     27 N          60.9420   89.2185    9.0119 N.3     1  UNL1       -0.3172
     28 H          61.1890   89.2496    8.0227 H       1  UNL1        0.1192
     29 H          61.6204   89.7586    9.5489 H       1  UNL1        0.1192
     30 C          61.2890   86.6893    8.5295 C.ar    1  UNL1       -0.0063
     31 C          60.2440   86.1602    7.5924 C.ar    1  UNL1       -0.0029
     32 C          60.5837   85.0546    6.6373 C.ar    1  UNL1       -0.0003
     33 C          61.9684   84.4781    6.6192 C.ar    1  UNL1       -0.0000
     34 C          63.0134   85.0072    7.5562 C.ar    1  UNL1       -0.0003
     35 C          62.6737   86.1128    8.5113 C.ar    1  UNL1       -0.0029
     36 C          64.1464   84.4519   13.2345 C.3     1  UNL1        0.1391
     37 C          63.3155   83.2063   13.3233 C.ar    1  UNL1        0.0319
     38 C          62.4651   82.9566   14.5334 C.ar    1  UNL1        0.1379
     39 F          62.3747   83.5362   15.3236 F       1  UNL1       -0.2044
     40 C          61.6341   81.7109   14.6222 C.ar    1  UNL1        0.0294
     41 C          61.6537   80.7149   13.5008 C.ar    1  UNL1        0.0022
     42 C          62.5041   80.9645   12.2906 C.ar    1  UNL1        0.0037
     43 C          63.3350   82.2102   12.2019 C.ar    1  UNL1        0.0714
     44 C          64.1854   82.4598   10.9917 C.3     1  UNL1        0.4184
     45 F          65.0359   82.7094    9.7816 F       1  UNL1       -0.1659
     46 F          62.9508   82.6912   10.1718 F       1  UNL1       -0.1659
     47 F          65.4200   82.2284   11.8116 F       1  UNL1       -0.1659
@<TRIPOS>UNITY_ATOM_ATTR
23 1
charge -1
@<TRIPOS>BOND
     1     1     2    1
     2     2     3   ar
     3     3    10    1
     4    10    11   ar
     5    11    12   ar
     6    12    13   ar
     7    13    14   ar
     8    14    17    1
     9    17    18    1
    10    18    19    1
    11    19    20    1
    12    20    21    1
    13    21    22    1
    14    22    23   ar
    15    22    24   ar
    16    14    15   ar
    17    15    16    1
    18     3     4   ar
    19     4     5    2
    20     4     6   ar
    21     6    25    1
    22    25    26    1
    23    26    27    1
    24    26    30    1
    25    30    31   ar
    26    31    32   ar
    27    32    33   ar
    28    33    34   ar
    29    34    35   ar
    30     6     7   ar
    31     7     8    2
    32     7     9   ar
    33     9    36    1
    34    36    37    1
    35    37    38   ar
    36    38    39    1
    37    38    40   ar
    38    40    41   ar
    39    41    42   ar
    40    42    43   ar
    41    43    44    1
    42    44    45    1
    43    44    46    1
    44    44    47    1
    45     9     2   ar
    46    43    37   ar
    47    15    10   ar
    48    35    30   ar
    49    27    28    1
    50    27    29    1
@<TRIPOS>MOLECULE
*****
 47 50 0 0 0
SMALL
GASTEIGER

@<TRIPOS>ATOM
      1 C          62.0501   88.2523   12.5194 C.3     1  UNL1        0.0503
      2 C          63.0556   89.3559   12.6647 C.ar    1  UNL1        0.0465
      3 C          63.8629   89.4741   13.9234 C.ar    1  UNL1        0.0703
      4 C          64.8683   90.5777   14.0687 C.ar    1  UNL1        0.2654
      5 O          65.6756   90.6958   15.3275 O.2     1  UNL1       -0.2668
      6 N          65.0665   91.5631   12.9554 N.ar    1  UNL1       -0.2470
      7 C          64.2593   91.4450   11.6967 C.ar    1  UNL1        0.3338
      8 O          64.4720   92.1431   11.0365 O.2     1  UNL1       -0.2462
      9 N          63.2538   90.3414   11.5514 N.ar    1  UNL1       -0.2806
     10 C          63.6647   88.4886   15.0368 C.ar    1  UNL1        0.0362
     11 C          63.1062   88.9452   16.3519 C.ar    1  UNL1        0.0026
     12 C          62.9080   87.9597   17.4653 C.ar    1  UNL1        0.0033
     13 C          63.2684   86.5177   17.2636 C.ar    1  UNL1        0.0392
     14 C          63.8269   86.0611   15.9483 C.ar    1  UNL1        0.1658
     15 C          64.0250   87.0466   14.8350 C.ar    1  UNL1        0.1739
     16 F          64.5836   86.5900   13.5198 F       1  UNL1       -0.2010
     17 O          64.1873   84.6191   15.7466 O.3     1  UNL1       -0.4732
     18 C          63.1340   83.6332   15.3357 C.3     1  UNL1        0.2055
     19 C          63.0308   83.1991   13.9036 C.3     1  UNL1        0.0477
     20 C          62.6743   84.1964   12.8414 C.3     1  UNL1        0.0097
     21 C          62.7825   83.8208   11.3933 C.3     1  UNL1        0.0418
     22 C          63.5669   82.6076   10.9897 C.2     1  UNL1        0.0503
     23 O          64.9498   82.7608   10.4291 O.co2   1  UNL1       -0.5492
     24 O          62.9684   81.2412   11.1468 O.co2   1  UNL1       -0.5492
     25 C          66.0720   92.6667   13.1007 C.3     1  UNL1        0.1334
     26 C          67.4295   92.5314   12.4773 C.3     1  UNL1        0.0968
     27 N          68.5697   91.9736   13.2767 N.3     1  UNL1       -0.3172
     28 H          69.4112   91.9535   12.7006 H       1  UNL1        0.1192
     29 H          68.3418   91.0265   13.5790 H       1  UNL1        0.1192
     30 C          67.6470   92.9537   11.0546 C.ar    1  UNL1       -0.0063
     31 C          67.0981   94.2624   10.5684 C.ar    1  UNL1       -0.0029
     32 C          67.3156   94.6847    9.1456 C.ar    1  UNL1       -0.0003
     33 C          68.0820   93.7985    8.2090 C.ar    1  UNL1       -0.0000
     34 C          68.6309   92.4900    8.6951 C.ar    1  UNL1       -0.0003
     35 C          68.4134   92.0676   10.1179 C.ar    1  UNL1       -0.0029
     36 C          62.4465   90.2233   10.2926 C.3     1  UNL1        0.1391
     37 C          61.7032   88.9550    9.9945 C.ar    1  UNL1        0.0319
     38 C          62.4267   87.7841    9.3981 C.ar    1  UNL1        0.1379
     39 F          63.3809   87.7349    9.1625 F       1  UNL1       -0.2044
     40 C          61.6834   86.5158    9.1001 C.ar    1  UNL1        0.0294
     41 C          60.2166   86.4183    9.3984 C.ar    1  UNL1        0.0022
     42 C          59.4931   87.5891    9.9948 C.ar    1  UNL1        0.0037
     43 C          60.2364   88.8574   10.2929 C.ar    1  UNL1        0.0714
     44 C          59.5129   90.0283   10.8893 C.3     1  UNL1        0.4184
     45 F          58.7894   91.1991   11.4857 F       1  UNL1       -0.1659
     46 F          59.7684   90.8214    9.6420 F       1  UNL1       -0.1659
     47 F          59.2575   89.2351   12.1365 F       1  UNL1       -0.1659
@<TRIPOS>UNITY_ATOM_ATTR
23 1
charge -1
@<TRIPOS>BOND
     1     1     2    1
     2     2     3   ar
     3     3    10    1
     4    10    11   ar
     5    11    12   ar
     6    12    13   ar
     7    13    14   ar
     8    14    17    1
     9    17    18    1
    10    18    19    1
    11    19    20    1
    12    20    21    1
    13    21    22    1
    14    22    23   ar
    15    22    24   ar
    16    14    15   ar
    17    15    16    1
    18     3     4   ar
    19     4     5    2
    20     4     6   ar
    21     6    25    1
    22    25    26    1
    23    26    27    1
    24    26    30    1
    25    30    31   ar
    26    31    32   ar
    27    32    33   ar
    28    33    34   ar
    29    34    35   ar
    30     6     7   ar
    31     7     8    2
    32     7     9   ar
    33     9    36    1
    34    36    37    1
    35    37    38   ar
    36    38    39    1
    37    38    40   ar
    38    40    41   ar
    39    41    42   ar
    40    42    43   ar
    41    43    44    1
    42    44    45    1
    43    44    46    1
    44    44    47    1
    45     9     2   ar
    46    43    37   ar
    47    15    10   ar
    48    35    30   ar
    49    27    28    1
    50    27    29    1
@<TRIPOS>MOLECULE
*****
 47 50 0 0 0
SMALL
GASTEIGER

@<TRIPOS>ATOM
      1 C          63.1612   84.1168   11.2631 C.3     1  UNL1        0.0503
      2 C          63.1571   85.5414   11.7328 C.ar    1  UNL1        0.0465
      3 C          62.5634   86.6143   10.8689 C.ar    1  UNL1        0.0703
      4 C          62.5593   88.0388   11.3387 C.ar    1  UNL1        0.2654
      5 O          61.9656   89.1117   10.4747 O.2     1  UNL1       -0.2668
      6 N          63.1489   88.3905   12.6723 N.ar    1  UNL1       -0.2470
      7 C          63.7426   87.3176   13.5362 C.ar    1  UNL1        0.3338
      8 O          64.0990   87.6619   14.3865 O.2     1  UNL1       -0.2462
      9 N          63.7467   85.8931   13.0665 N.ar    1  UNL1       -0.2806
     10 C          61.9737   86.2627    9.5352 C.ar    1  UNL1        0.0362
     11 C          62.7858   85.4942    8.5352 C.ar    1  UNL1        0.0026
     12 C          62.1962   85.1425    7.2015 C.ar    1  UNL1        0.0033
     13 C          60.7944   85.5594    6.8678 C.ar    1  UNL1        0.0392
     14 C          59.9823   86.3280    7.8679 C.ar    1  UNL1        0.1658
     15 C          60.5720   86.6795    9.2015 C.ar    1  UNL1        0.1739
     16 F          59.7599   87.4481   10.2015 F       1  UNL1       -0.2010
     17 O          58.5806   86.7449    7.5342 O.3     1  UNL1       -0.4732
     18 C          58.2496   88.1986    7.3696 C.3     1  UNL1        0.2055
     19 C          59.3288   89.1781    7.0147 C.3     1  UNL1        0.0477
     20 C          59.3953   89.7517    5.6303 C.3     1  UNL1        0.0097
     21 C          59.5801   91.2278    5.4382 C.3     1  UNL1        0.0418
     22 C          58.6087   92.0022    4.5975 C.2     1  UNL1        0.0503
     23 O          59.0886   92.7347    3.3796 O.co2   1  UNL1       -0.5492
     24 O          57.1575   92.0440    4.9746 O.co2   1  UNL1       -0.5492
     25 C          63.1448   89.8150   13.1420 C.3     1  UNL1        0.1334
     26 C          63.9791   90.8407   12.4336 C.3     1  UNL1        0.0968
     27 N          63.7095   91.1622   10.9934 N.3     1  UNL1       -0.3172
     28 H          64.3658   91.8754   10.6757 H       1  UNL1        0.1192
     29 H          62.7557   91.5100   10.8955 H       1  UNL1        0.1192
     30 C          65.0829   91.5451   13.1654 C.ar    1  UNL1       -0.0063
     31 C          65.6620   92.8123   12.6095 C.ar    1  UNL1       -0.0029
     32 C          66.7658   93.5167   13.3412 C.ar    1  UNL1       -0.0003
     33 C          67.2906   92.9537   14.6288 C.ar    1  UNL1       -0.0000
     34 C          66.7116   91.6866   15.1846 C.ar    1  UNL1       -0.0003
     35 C          65.6078   90.9822   14.4529 C.ar    1  UNL1       -0.0029
     36 C          64.3405   84.8201   13.9304 C.3     1  UNL1        0.1391
     37 C          63.7304   83.4500   13.9503 C.ar    1  UNL1        0.0319
     38 C          64.3573   82.3384   13.1621 C.ar    1  UNL1        0.1379
     39 F          65.1636   82.3921   12.6004 F       1  UNL1       -0.2044
     40 C          63.7472   80.9681   13.1820 C.ar    1  UNL1        0.0294
     41 C          62.5103   80.7096   13.9901 C.ar    1  UNL1        0.0022
     42 C          61.8834   81.8212   14.7783 C.ar    1  UNL1        0.0037
     43 C          62.4934   83.1914   14.7585 C.ar    1  UNL1        0.0714
     44 C          61.8665   84.3030   15.5467 C.3     1  UNL1        0.4184
     45 F          61.2397   85.4146   16.3349 F       1  UNL1       -0.1659
     46 F          61.0807   84.7169   14.3379 F       1  UNL1       -0.1659
     47 F          62.6524   83.8890   16.7555 F       1  UNL1       -0.1659
@<TRIPOS>UNITY_ATOM_ATTR
23 1
charge -1
@<TRIPOS>BOND
     1     1     2    1
     2     2     3   ar
     3     3    10    1
     4    10    11   ar
     5    11    12   ar
     6    12    13   ar
     7    13    14   ar
     8    14    17    1
     9    17    18    1
    10    18    19    1
    11    19    20    1
    12    20    21    1
    13    21    22    1
    14    22    23   ar
    15    22    24   ar
    16    14    15   ar
    17    15    16    1
    18     3     4   ar
    19     4     5    2
    20     4     6   ar
    21     6    25    1
    22    25    26    1
    23    26    27    1
    24    26    30    1
    25    30    31   ar
    26    31    32   ar
    27    32    33   ar
    28    33    34   ar
    29    34    35   ar
    30     6     7   ar
    31     7     8    2
    32     7     9   ar
    33     9    36    1
    34    36    37    1
    35    37    38   ar
    36    38    39    1
    37    38    40   ar
    38    40    41   ar
    39    41    42   ar
    40    42    43   ar
    41    43    44    1
    42    44    45    1
    43    44    46    1
    44    44    47    1
    45     9     2   ar
    46    43    37   ar
    47    15    10   ar
    48    35    30   ar
    49    27    28    1
    50    27    29    1
@<TRIPOS>MOLECULE
*****
 47 50 0 0 0
SMALL
GASTEIGER

@<TRIPOS>ATOM
      1 C          60.9239   90.4725   10.9506 C.3     1  UNL1        0.0503
      2 C          61.6309   89.2163   11.3654 C.ar    1  UNL1        0.0465
      3 C          61.4316   87.9509   10.5850 C.ar    1  UNL1        0.0703
      4 C          62.1386   86.6947   10.9998 C.ar    1  UNL1        0.2654
      5 O          61.9392   85.4292   10.2194 O.2     1  UNL1       -0.2668
      6 N          63.0449   86.7038   12.1950 N.ar    1  UNL1       -0.2470
      7 C          63.2442   87.9692   12.9753 C.ar    1  UNL1        0.3338
      8 O          63.8579   87.8588   13.7368 O.2     1  UNL1       -0.2462
      9 N          62.5372   89.2254   12.5605 N.ar    1  UNL1       -0.2806
     10 C          60.5252   87.9416    9.3898 C.ar    1  UNL1        0.0362
     11 C          59.5680   86.8054    9.1832 C.ar    1  UNL1        0.0026
     12 C          58.6616   86.7962    7.9879 C.ar    1  UNL1        0.0033
     13 C          58.7125   87.9232    6.9994 C.ar    1  UNL1        0.0392
     14 C          59.6698   89.0595    7.2061 C.ar    1  UNL1        0.1658
     15 C          60.5761   89.0687    8.4013 C.ar    1  UNL1        0.1739
     16 F          61.5334   90.2049    8.6079 F       1  UNL1       -0.2010
     17 O          59.7207   90.1865    6.2175 O.3     1  UNL1       -0.4732
     18 C          58.4536   90.7026    5.6026 C.3     1  UNL1        0.2055
     19 C          58.4930   91.8933    4.6912 C.3     1  UNL1        0.0477
     20 C          59.8107   92.4380    4.2255 C.3     1  UNL1        0.0097
     21 C          59.9762   92.8877    2.8041 C.3     1  UNL1        0.0418
     22 C          61.3488   93.0139    2.2124 C.2     1  UNL1        0.0503
     23 O          61.5535   93.8055    0.9548 O.co2   1  UNL1       -0.5492
     24 O          62.5166   92.3486    2.8783 O.co2   1  UNL1       -0.5492
     25 C          63.7519   85.4476   12.6098 C.3     1  UNL1        0.1334
     26 C          63.1250   84.5327   13.6197 C.3     1  UNL1        0.0968
     27 N          62.7167   85.0641   14.9617 N.3     1  UNL1       -0.3172
     28 H          62.3112   84.3105   15.5168 H       1  UNL1        0.1192
     29 H          62.0265   85.8049   14.8384 H       1  UNL1        0.1192
     30 C          62.9063   83.0864   13.2876 C.ar    1  UNL1       -0.0063
     31 C          62.3579   82.1530   14.3260 C.ar    1  UNL1       -0.0029
     32 C          62.1393   80.7067   13.9939 C.ar    1  UNL1       -0.0003
     33 C          62.4690   80.1937   12.6234 C.ar    1  UNL1       -0.0000
     34 C          63.0174   81.1270   11.5851 C.ar    1  UNL1       -0.0003
     35 C          63.2361   82.5733   11.9172 C.ar    1  UNL1       -0.0029
     36 C          62.7366   90.4909   13.3410 C.3     1  UNL1        0.1391
     37 C          64.1018   91.1045   13.4389 C.ar    1  UNL1        0.0319
     38 C          64.7749   91.6365   12.2085 C.ar    1  UNL1        0.1379
     39 F          64.4184   91.6363   11.2913 F       1  UNL1       -0.2044
     40 C          66.1402   92.2501   12.3065 C.ar    1  UNL1        0.0294
     41 C          66.8323   92.3317   13.6347 C.ar    1  UNL1        0.0022
     42 C          66.1591   91.7997   14.8651 C.ar    1  UNL1        0.0037
     43 C          64.7939   91.1861   14.7672 C.ar    1  UNL1        0.0714
     44 C          64.1207   90.6540   15.9976 C.3     1  UNL1        0.4184
     45 F          63.4476   90.1220   17.2279 F       1  UNL1       -0.1659
     46 F          63.7269   92.0486   16.3851 F       1  UNL1       -0.1659
     47 F          64.5146   89.2595   15.6100 F       1  UNL1       -0.1659
@<TRIPOS>UNITY_ATOM_ATTR
23 1
charge -1
@<TRIPOS>BOND
     1     1     2    1
     2     2     3   ar
     3     3    10    1
     4    10    11   ar
     5    11    12   ar
     6    12    13   ar
     7    13    14   ar
     8    14    17    1
     9    17    18    1
    10    18    19    1
    11    19    20    1
    12    20    21    1
    13    21    22    1
    14    22    23   ar
    15    22    24   ar
    16    14    15   ar
    17    15    16    1
    18     3     4   ar
    19     4     5    2
    20     4     6   ar
    21     6    25    1
    22    25    26    1
    23    26    27    1
    24    26    30    1
    25    30    31   ar
    26    31    32   ar
    27    32    33   ar
    28    33    34   ar
    29    34    35   ar
    30     6     7   ar
    31     7     8    2
    32     7     9   ar
    33     9    36    1
    34    36    37    1
    35    37    38   ar
    36    38    39    1
    37    38    40   ar
    38    40    41   ar
    39    41    42   ar
    40    42    43   ar
    41    43    44    1
    42    44    45    1
    43    44    46    1
    44    44    47    1
    45     9     2   ar
    46    43    37   ar
    47    15    10   ar
    48    35    30   ar
    49    27    28    1
    50    27    29    1
@<TRIPOS>MOLECULE
*****
 47 50 0 0 0
SMALL
GASTEIGER

@<TRIPOS>ATOM
      1 C          62.3180   89.5511   10.5411 C.3     1  UNL1        0.0503
      2 C          62.7512   88.5377   11.5587 C.ar    1  UNL1        0.0465
      3 C          62.6118   87.0733   11.2653 C.ar    1  UNL1        0.0703
      4 C          63.0451   86.0600   12.2828 C.ar    1  UNL1        0.2654
      5 O          62.9056   84.5955   11.9894 O.2     1  UNL1       -0.2668
      6 N          63.6178   86.5110   13.5937 N.ar    1  UNL1       -0.2470
      7 C          63.7572   87.9753   13.8871 C.ar    1  UNL1        0.3338
      8 O          64.1438   88.1547   14.7742 O.2     1  UNL1       -0.2462
      9 N          63.3240   88.9887   12.8696 N.ar    1  UNL1       -0.2806
     10 C          62.0390   86.6223    9.9543 C.ar    1  UNL1        0.0362
     11 C          62.8721   85.8024    9.0142 C.ar    1  UNL1        0.0026
     12 C          62.2994   85.3513    7.7033 C.ar    1  UNL1        0.0033
     13 C          60.8935   85.7202    7.3324 C.ar    1  UNL1        0.0392
     14 C          60.0604   86.5401    8.2726 C.ar    1  UNL1        0.1658
     15 C          60.6332   86.9911    9.5835 C.ar    1  UNL1        0.1739
     16 F          59.8001   87.8110   10.5236 F       1  UNL1       -0.2010
     17 O          58.6545   86.9089    7.9018 O.3     1  UNL1       -0.4732
     18 C          58.3932   88.1357    7.0790 C.3     1  UNL1        0.2055
     19 C          59.2630   89.3469    7.2414 C.3     1  UNL1        0.0477
     20 C          59.4400   90.3018    6.0982 C.3     1  UNL1        0.0097
     21 C          58.4028   90.3783    5.0174 C.3     1  UNL1        0.0418
     22 C          57.1554   91.1835    5.2307 C.2     1  UNL1        0.0503
     23 O          57.1903   92.6753    5.0778 O.co2   1  UNL1       -0.5492
     24 O          55.8729   90.4969    5.5968 O.co2   1  UNL1       -0.5492
     25 C          64.0511   85.4976   14.6112 C.3     1  UNL1        0.1334
     26 C          63.0437   84.5676   15.2196 C.3     1  UNL1        0.0968
     27 N          62.1975   85.0269   16.3699 N.3     1  UNL1       -0.3172
     28 H          61.5731   84.2725   16.6552 H       1  UNL1        0.1192
     29 H          61.6453   85.8355   16.0842 H       1  UNL1        0.1192
     30 C          62.8824   83.1782   14.6777 C.ar    1  UNL1       -0.0063
     31 C          64.0746   82.4352   14.1518 C.ar    1  UNL1       -0.0029
     32 C          63.9133   81.0458   13.6099 C.ar    1  UNL1       -0.0003
     33 C          62.5598   80.3994   13.5940 C.ar    1  UNL1       -0.0000
     34 C          61.3676   81.1424   14.1199 C.ar    1  UNL1       -0.0003
     35 C          61.5289   82.5318   14.6618 C.ar    1  UNL1       -0.0029
     36 C          63.4635   90.4531   13.1630 C.3     1  UNL1        0.1391
     37 C          64.8265   91.0692   13.2745 C.ar    1  UNL1        0.0319
     38 C          65.6273   90.8962   14.5311 C.ar    1  UNL1        0.1379
     39 F          65.3610   90.4029   15.3399 F       1  UNL1       -0.2044
     40 C          66.9904   91.5123   14.6425 C.ar    1  UNL1        0.0294
     41 C          67.5527   92.3014   13.4975 C.ar    1  UNL1        0.0022
     42 C          66.7520   92.4743   12.2409 C.ar    1  UNL1        0.0037
     43 C          65.3889   91.8583   12.1294 C.ar    1  UNL1        0.0714
     44 C          64.5882   92.0313   10.8729 C.3     1  UNL1        0.4184
     45 F          63.7875   92.2042    9.6163 F       1  UNL1       -0.1659
     46 F          65.0833   90.7058   10.3749 F       1  UNL1       -0.1659
     47 F          64.0930   93.3567   11.3709 F       1  UNL1       -0.1659
@<TRIPOS>UNITY_ATOM_ATTR
23 1
charge -1
@<TRIPOS>BOND
     1     1     2    1
     2     2     3   ar
     3     3    10    1
     4    10    11   ar
     5    11    12   ar
     6    12    13   ar
     7    13    14   ar
     8    14    17    1
     9    17    18    1
    10    18    19    1
    11    19    20    1
    12    20    21    1
    13    21    22    1
    14    22    23   ar
    15    22    24   ar
    16    14    15   ar
    17    15    16    1
    18     3     4   ar
    19     4     5    2
    20     4     6   ar
    21     6    25    1
    22    25    26    1
    23    26    27    1
    24    26    30    1
    25    30    31   ar
    26    31    32   ar
    27    32    33   ar
    28    33    34   ar
    29    34    35   ar
    30     6     7   ar
    31     7     8    2
    32     7     9   ar
    33     9    36    1
    34    36    37    1
    35    37    38   ar
    36    38    39    1
    37    38    40   ar
    38    40    41   ar
    39    41    42   ar
    40    42    43   ar
    41    43    44    1
    42    44    45    1
    43    44    46    1
    44    44    47    1
    45     9     2   ar
    46    43    37   ar
    47    15    10   ar
    48    35    30   ar
    49    27    28    1
    50    27    29    1
@<TRIPOS>MOLECULE
*****
 47 50 0 0 0
SMALL
GASTEIGER

@<TRIPOS>ATOM
      1 C          62.7711   86.4067   12.3838 C.3     1  UNL1        0.0503
      2 C          63.0826   87.8726   12.3198 C.ar    1  UNL1        0.0465
      3 C          62.4235   88.7350   11.2846 C.ar    1  UNL1        0.0703
      4 C          62.7351   90.2009   11.2206 C.ar    1  UNL1        0.2654
      5 O          62.0759   91.0633   10.1853 O.2     1  UNL1       -0.2668
      6 N          63.7058   90.8044   12.1920 N.ar    1  UNL1       -0.2470
      7 C          64.3649   89.9420   13.2272 C.ar    1  UNL1        0.3338
      8 O          64.9810   90.4425   13.8090 O.2     1  UNL1       -0.2462
      9 N          64.0533   88.4761   13.2911 N.ar    1  UNL1       -0.2806
     10 C          61.4528   88.1315   10.3132 C.ar    1  UNL1        0.0362
     11 C          59.9806   88.3642   10.4817 C.ar    1  UNL1        0.0026
     12 C          59.0098   87.7607    9.5103 C.ar    1  UNL1        0.0033
     13 C          59.5114   86.9246    8.3704 C.ar    1  UNL1        0.0392
     14 C          60.9837   86.6919    8.2019 C.ar    1  UNL1        0.1658
     15 C          61.9543   87.2954    9.1733 C.ar    1  UNL1        0.1739
     16 F          63.4266   87.0627    9.0048 F       1  UNL1       -0.2010
     17 O          61.4852   85.8558    7.0620 O.3     1  UNL1       -0.4732
     18 C          62.1838   84.5568    7.3353 C.3     1  UNL1        0.2055
     19 C          63.4069   84.5311    8.2034 C.3     1  UNL1        0.0477
     20 C          63.3020   84.0936    9.6343 C.3     1  UNL1        0.0097
     21 C          64.0514   82.8825   10.1051 C.3     1  UNL1        0.0418
     22 C          63.3288   81.7914   10.8381 C.2     1  UNL1        0.0503
     23 O          63.0926   80.4687   10.1711 O.co2   1  UNL1       -0.5492
     24 O          62.8423   82.0230   12.2380 O.co2   1  UNL1       -0.5492
     25 C          64.0173   92.2703   12.1280 C.3     1  UNL1        0.1334
     26 C          65.4184   92.7503   12.3656 C.3     1  UNL1        0.0968
     27 N          65.8831   93.0474   13.7605 N.3     1  UNL1       -0.3172
     28 H          66.8537   93.3601   13.7362 H       1  UNL1        0.1192
     29 H          65.8119   92.2038   14.3295 H       1  UNL1        0.1192
     30 C          66.3549   92.9333   11.2082 C.ar    1  UNL1       -0.0063
     31 C          67.4743   91.9593   10.9879 C.ar    1  UNL1       -0.0029
     32 C          68.4107   92.1423    9.8305 C.ar    1  UNL1       -0.0003
     33 C          68.2278   93.2992    8.8934 C.ar    1  UNL1       -0.0000
     34 C          67.1085   94.2732    9.1137 C.ar    1  UNL1       -0.0003
     35 C          66.1720   94.0902   10.2711 C.ar    1  UNL1       -0.0029
     36 C          64.7125   87.6137   14.3265 C.3     1  UNL1        0.1391
     37 C          63.9593   87.2154   15.5609 C.ar    1  UNL1        0.0319
     38 C          63.4245   88.2684   16.4857 C.ar    1  UNL1        0.1379
     39 F          63.5072   89.2437   16.3837 F       1  UNL1       -0.2044
     40 C          62.6712   87.8701   17.7202 C.ar    1  UNL1        0.0294
     41 C          62.4528   86.4188   18.0299 C.ar    1  UNL1        0.0022
     42 C          62.9876   85.3658   17.1052 C.ar    1  UNL1        0.0037
     43 C          63.7408   85.7641   15.8707 C.ar    1  UNL1        0.0714
     44 C          64.2756   84.7110   14.9460 C.3     1  UNL1        0.4184
     45 F          64.8104   83.6580   14.0212 F       1  UNL1       -0.1659
     46 F          62.8933   84.1518   14.7833 F       1  UNL1       -0.1659
     47 F          65.6579   85.2702   15.1087 F       1  UNL1       -0.1659
@<TRIPOS>UNITY_ATOM_ATTR
23 1
charge -1
@<TRIPOS>BOND
     1     1     2    1
     2     2     3   ar
     3     3    10    1
     4    10    11   ar
     5    11    12   ar
     6    12    13   ar
     7    13    14   ar
     8    14    17    1
     9    17    18    1
    10    18    19    1
    11    19    20    1
    12    20    21    1
    13    21    22    1
    14    22    23   ar
    15    22    24   ar
    16    14    15   ar
    17    15    16    1
    18     3     4   ar
    19     4     5    2
    20     4     6   ar
    21     6    25    1
    22    25    26    1
    23    26    27    1
    24    26    30    1
    25    30    31   ar
    26    31    32   ar
    27    32    33   ar
    28    33    34   ar
    29    34    35   ar
    30     6     7   ar
    31     7     8    2
    32     7     9   ar
    33     9    36    1
    34    36    37    1
    35    37    38   ar
    36    38    39    1
    37    38    40   ar
    38    40    41   ar
    39    41    42   ar
    40    42    43   ar
    41    43    44    1
    42    44    45    1
    43    44    46    1
    44    44    47    1
    45     9     2   ar
    46    43    37   ar
    47    15    10   ar
    48    35    30   ar
    49    27    28    1
    50    27    29    1
@<TRIPOS>MOLECULE
*****
 47 50 0 0 0
SMALL
GASTEIGER

@<TRIPOS>ATOM
      1 C          62.8286   86.0343   11.9308 C.3     1  UNL1        0.0503
      2 C          63.0935   87.5088   12.0055 C.ar    1  UNL1        0.0465
      3 C          62.5412   88.4242   10.9534 C.ar    1  UNL1        0.0703
      4 C          62.8060   89.8988   11.0281 C.ar    1  UNL1        0.2654
      5 O          62.2536   90.8142    9.9760 O.2     1  UNL1       -0.2668
      6 N          63.6233   90.4579   12.1548 N.ar    1  UNL1       -0.2470
      7 C          64.1757   89.5424   13.2068 C.ar    1  UNL1        0.3338
      8 O          64.6946   90.0169   13.8954 O.2     1  UNL1       -0.2462
      9 N          63.9108   88.0679   13.1322 N.ar    1  UNL1       -0.2806
     10 C          61.7239   87.8652    9.8267 C.ar    1  UNL1        0.0362
     11 C          61.9644   86.4638    9.3491 C.ar    1  UNL1        0.0026
     12 C          61.1471   85.9047    8.2223 C.ar    1  UNL1        0.0033
     13 C          60.0893   86.7471    7.5732 C.ar    1  UNL1        0.0392
     14 C          59.8487   88.1486    8.0509 C.ar    1  UNL1        0.1658
     15 C          60.6660   88.7076    9.1776 C.ar    1  UNL1        0.1739
     16 F          60.4255   90.1090    9.6552 F       1  UNL1       -0.2010
     17 O          58.7909   88.9910    7.4018 O.3     1  UNL1       -0.4732
     18 C          59.1501   89.9018    6.2653 C.3     1  UNL1        0.2055
     19 C          58.0697   90.5970    5.4911 C.3     1  UNL1        0.0477
     20 C          58.3704   91.8751    4.7660 C.3     1  UNL1        0.0097
     21 C          59.7920   92.2566    4.4766 C.3     1  UNL1        0.0418
     22 C          60.1863   92.6883    3.0953 C.2     1  UNL1        0.0503
     23 O          59.1306   93.0412    2.0897 O.co2   1  UNL1       -0.5492
     24 O          61.6363   92.7670    2.7194 O.co2   1  UNL1       -0.5492
     25 C          63.8882   91.9324   12.2294 C.3     1  UNL1        0.1334
     26 C          65.2729   92.4320   12.5172 C.3     1  UNL1        0.0968
     27 N          65.7234   92.6183   13.9358 N.3     1  UNL1       -0.3172
     28 H          66.6839   92.9614   13.9452 H       1  UNL1        0.1192
     29 H          65.6764   91.7258   14.4274 H       1  UNL1        0.1192
     30 C          66.2072   92.7454   11.3863 C.ar    1  UNL1       -0.0063
     31 C          65.9422   93.9260   10.4997 C.ar    1  UNL1       -0.0029
     32 C          66.8765   94.2394    9.3688 C.ar    1  UNL1       -0.0003
     33 C          68.0759   93.3723    9.1246 C.ar    1  UNL1       -0.0000
     34 C          68.3409   92.1918   10.0112 C.ar    1  UNL1       -0.0003
     35 C          67.4066   91.8784   11.1421 C.ar    1  UNL1       -0.0029
     36 C          64.4632   87.1524   14.1843 C.3     1  UNL1        0.1391
     37 C          63.7295   86.9695   15.4797 C.ar    1  UNL1        0.0319
     38 C          63.4948   88.1452   16.3812 C.ar    1  UNL1        0.1379
     39 F          63.7751   89.0757   16.2262 F       1  UNL1       -0.2044
     40 C          62.7610   87.9622   17.6767 C.ar    1  UNL1        0.0294
     41 C          62.2619   86.6037   18.0706 C.ar    1  UNL1        0.0022
     42 C          62.4966   85.4280   17.1690 C.ar    1  UNL1        0.0037
     43 C          63.2303   85.6109   15.8736 C.ar    1  UNL1        0.0714
     44 C          63.4650   84.4353   14.9721 C.3     1  UNL1        0.4184
     45 F          63.6997   83.2596   14.0706 F       1  UNL1       -0.1659
     46 F          61.9991   84.3832   14.6584 F       1  UNL1       -0.1659
     47 F          64.9309   84.4873   15.2858 F       1  UNL1       -0.1659
@<TRIPOS>UNITY_ATOM_ATTR
23 1
charge -1
@<TRIPOS>BOND
     1     1     2    1
     2     2     3   ar
     3     3    10    1
     4    10    11   ar
     5    11    12   ar
     6    12    13   ar
     7    13    14   ar
     8    14    17    1
     9    17    18    1
    10    18    19    1
    11    19    20    1
    12    20    21    1
    13    21    22    1
    14    22    23   ar
    15    22    24   ar
    16    14    15   ar
    17    15    16    1
    18     3     4   ar
    19     4     5    2
    20     4     6   ar
    21     6    25    1
    22    25    26    1
    23    26    27    1
    24    26    30    1
    25    30    31   ar
    26    31    32   ar
    27    32    33   ar
    28    33    34   ar
    29    34    35   ar
    30     6     7   ar
    31     7     8    2
    32     7     9   ar
    33     9    36    1
    34    36    37    1
    35    37    38   ar
    36    38    39    1
    37    38    40   ar
    38    40    41   ar
    39    41    42   ar
    40    42    43   ar
    41    43    44    1
    42    44    45    1
    43    44    46    1
    44    44    47    1
    45     9     2   ar
    46    43    37   ar
    47    15    10   ar
    48    35    30   ar
    49    27    28    1
    50    27    29    1
