@<TRIPOS>MOLECULE
*****
 35 39 0 0 0
SMALL
GASTEIGER

@<TRIPOS>ATOM
      1 C          63.6669   88.9956   13.3269 C.ar    1  UNL1        0.1261
      2 N          62.8927   89.0516   12.0434 N.ar    1  UNL1       -0.1632
      3 N          62.5723   87.6447   11.6336 N.ar    1  UNL1       -0.2290
      4 C          63.1486   86.7192   12.6639 C.ar    1  UNL1        0.0822
      5 C          63.8251   87.5541   13.7104 C.ar    1  UNL1        0.0413
      6 C          61.8096   87.2351   10.4086 C.ar    1  UNL1        0.0933
      7 C          62.4880   86.4376    9.3344 C.ar    1  UNL1        0.0209
      8 C          61.7253   86.0281    8.1095 C.ar    1  UNL1        0.0130
      9 C          60.2842   86.4161    7.9587 C.ar    1  UNL1        0.0586
     10 CL         59.5215   86.0065    6.7337 Cl      1  UNL1       -0.0822
     11 C          59.6058   87.2135    9.0328 C.ar    1  UNL1        0.0243
     12 C          60.3685   87.6230   10.2577 C.ar    1  UNL1        0.0761
     13 CL         59.6901   88.4206   11.3320 Cl      1  UNL1       -0.0806
     14 C          63.0632   85.2217   12.6500 C.ar    1  UNL1        0.0175
     15 C          63.6660   84.4465   11.5162 C.ar    1  UNL1        0.0020
     16 C          63.5807   82.9490   11.5023 C.ar    1  UNL1        0.0067
     17 C          62.8926   82.2266   12.6224 C.ar    1  UNL1        0.0346
     18 BR         62.8073   80.7291   12.6086 Br      1  UNL1       -0.0490
     19 C          62.2897   83.0018   13.7564 C.ar    1  UNL1        0.0067
     20 C          62.3751   84.4993   13.7701 C.ar    1  UNL1        0.0020
     21 C          65.6186   91.9850   14.8501 C.ar    1  UNL1        0.1104
     22 N          64.3766   91.9909   15.6913 N.ar    1  UNL1       -0.1453
     23 N          63.4944   90.8717   15.2230 N.ar    1  UNL1       -0.1396
     24 C          64.1911   90.1742   14.0925 C.ar    1  UNL1        0.1525
     25 S          65.5038   90.8623   13.8620 S.2     1  UNL1       -0.0483
     26 C          67.0657   92.3987   16.3450 C.3     1  UNL1        0.0065
     27 C          66.7725   92.9351   14.9751 C.3     1  UNL1        0.0430
     28 C          66.4793   93.4715   13.6053 C.3     1  UNL1        0.0065
     29 C          67.9264   93.8852   15.1002 C.3     1  UNL1        0.0065
     30 C          64.5350   87.0381   14.9268 C.3     1  UNL1        0.1587
     31 N          63.7783   86.8304   16.2052 N.ar    1  UNL1       -0.2254
     32 C          63.4895   85.5091   16.8541 C.ar    1  UNL1        0.1975
     33 N          62.7103   85.7696   18.1091 N.ar    1  UNL1       -0.2007
     34 C          62.5175   87.2518   18.2358 C.ar    1  UNL1        0.2210
     35 N          63.1776   87.9074   17.0591 N.ar    1  UNL1       -0.1448
@<TRIPOS>BOND
     1    26    27    1
     2    27    28    1
     3    27    29    1
     4    27    21    1
     5    21    22   ar
     6    22    23   ar
     7    23    24   ar
     8    24     1    1
     9     1     2   ar
    10     2     3   ar
    11     3     6    1
    12     6     7   ar
    13     7     8   ar
    14     8     9   ar
    15     9    10    1
    16     9    11   ar
    17    11    12   ar
    18    12    13    1
    19     3     4   ar
    20     4    14    1
    21    14    15   ar
    22    15    16   ar
    23    16    17   ar
    24    17    18    1
    25    17    19   ar
    26    19    20   ar
    27     4     5   ar
    28     5    30    1
    29    30    31    1
    30    31    32   ar
    31    32    33   ar
    32    33    34   ar
    33    34    35   ar
    34    24    25   ar
    35    25    21   ar
    36     5     1   ar
    37    35    31   ar
    38    12     6   ar
    39    20    14   ar
@<TRIPOS>MOLECULE
*****
 35 39 0 0 0
SMALL
GASTEIGER

@<TRIPOS>ATOM
      1 C          63.4460   87.8900   13.4231 C.ar    1  UNL1        0.1261
      2 N          63.4928   86.4572   13.8646 N.ar    1  UNL1       -0.1632
      3 N          63.0830   85.6007   12.7034 N.ar    1  UNL1       -0.2290
      4 C          62.7828   86.5042   11.5442 C.ar    1  UNL1        0.0822
      5 C          63.0072   87.9190   11.9890 C.ar    1  UNL1        0.0413
      6 C          62.9897   84.1036   12.7017 C.ar    1  UNL1        0.0933
      7 C          63.4223   83.3266   11.4938 C.ar    1  UNL1        0.0209
      8 C          63.3290   81.8295   11.4921 C.ar    1  UNL1        0.0130
      9 C          62.8030   81.1095   12.6983 C.ar    1  UNL1        0.0586
     10 CL         62.7097   79.6123   12.6965 Cl      1  UNL1       -0.0822
     11 C          62.3703   81.8865   13.9061 C.ar    1  UNL1        0.0243
     12 C          62.4636   83.3835   13.9078 C.ar    1  UNL1        0.0761
     13 CL         62.0310   84.1606   15.1157 Cl      1  UNL1       -0.0806
     14 C          62.3367   86.0692   10.1798 C.ar    1  UNL1        0.0175
     15 C          63.2942   85.3609    9.2679 C.ar    1  UNL1        0.0020
     16 C          62.8481   84.9259    7.9035 C.ar    1  UNL1        0.0067
     17 C          61.4443   85.1991    7.4509 C.ar    1  UNL1        0.0346
     18 BR         60.9982   84.7641    6.0864 Br      1  UNL1       -0.0490
     19 C          60.4867   85.9074    8.3627 C.ar    1  UNL1        0.0067
     20 C          60.9330   86.3424    9.7271 C.ar    1  UNL1        0.0020
     21 C          64.9397   91.0027   15.1967 C.ar    1  UNL1        0.1104
     22 N          63.6451   90.8408   15.9368 N.ar    1  UNL1       -0.1453
     23 N          62.9280   89.6551   15.3625 N.ar    1  UNL1       -0.1396
     24 C          63.7794   89.0842   14.2675 C.ar    1  UNL1        0.1525
     25 S          65.0227   89.9170   14.1650 S.2     1  UNL1       -0.0483
     26 C          66.7164   91.6257   14.2193 C.3     1  UNL1        0.0065
     27 C          65.9703   92.0638   15.4448 C.3     1  UNL1        0.0430
     28 C          65.2243   92.5020   16.6701 C.3     1  UNL1        0.0065
     29 C          67.0010   93.1251   15.6928 C.3     1  UNL1        0.0065
     30 C          62.8247   89.1473   11.1474 C.3     1  UNL1        0.1587
     31 N          61.4618   89.7541   10.9917 N.ar    1  UNL1       -0.2254
     32 C          60.8028   90.1206    9.6950 C.ar    1  UNL1        0.1975
     33 N          59.4524   90.6940   10.0072 N.ar    1  UNL1       -0.2007
     34 C          59.2768   90.6819   11.4969 C.ar    1  UNL1        0.2210
     35 N          60.5187   90.1010   12.1053 N.ar    1  UNL1       -0.1448
@<TRIPOS>BOND
     1    26    27    1
     2    27    28    1
     3    27    29    1
     4    27    21    1
     5    21    22   ar
     6    22    23   ar
     7    23    24   ar
     8    24     1    1
     9     1     2   ar
    10     2     3   ar
    11     3     6    1
    12     6     7   ar
    13     7     8   ar
    14     8     9   ar
    15     9    10    1
    16     9    11   ar
    17    11    12   ar
    18    12    13    1
    19     3     4   ar
    20     4    14    1
    21    14    15   ar
    22    15    16   ar
    23    16    17   ar
    24    17    18    1
    25    17    19   ar
    26    19    20   ar
    27     4     5   ar
    28     5    30    1
    29    30    31    1
    30    31    32   ar
    31    32    33   ar
    32    33    34   ar
    33    34    35   ar
    34    24    25   ar
    35    25    21   ar
    36     5     1   ar
    37    35    31   ar
    38    12     6   ar
    39    20    14   ar
@<TRIPOS>MOLECULE
*****
 35 39 0 0 0
SMALL
GASTEIGER

@<TRIPOS>ATOM
      1 C          64.1479   89.3234   13.9355 C.ar    1  UNL1        0.1261
      2 N          64.2752   87.8762   14.3088 N.ar    1  UNL1       -0.1632
      3 N          63.5089   87.0690   13.3033 N.ar    1  UNL1       -0.2290
      4 C          62.9080   88.0173   12.3085 C.ar    1  UNL1        0.0822
      5 C          63.3029   89.4106   12.6991 C.ar    1  UNL1        0.0413
      6 C          63.3682   85.5756   13.2941 C.ar    1  UNL1        0.0933
      7 C          63.1150   84.8540   12.0037 C.ar    1  UNL1        0.0209
      8 C          62.9743   83.3607   11.9946 C.ar    1  UNL1        0.0130
      9 C          63.0868   82.5889   13.2759 C.ar    1  UNL1        0.0586
     10 CL         62.9460   81.0955   13.2667 Cl      1  UNL1       -0.0822
     11 C          63.3400   83.3105   14.5663 C.ar    1  UNL1        0.0243
     12 C          63.4807   84.8038   14.5754 C.ar    1  UNL1        0.0761
     13 CL         63.7339   85.5254   15.8659 Cl      1  UNL1       -0.0806
     14 C          62.0609   87.6387   11.1299 C.ar    1  UNL1        0.0175
     15 C          60.5855   87.9084   11.1491 C.ar    1  UNL1        0.0020
     16 C          59.7384   87.5298    9.9706 C.ar    1  UNL1        0.0067
     17 C          60.3666   86.8816    8.7726 C.ar    1  UNL1        0.0346
     18 BR         59.5195   86.5030    7.5940 Br      1  UNL1       -0.0490
     19 C          61.8422   86.6119    8.7533 C.ar    1  UNL1        0.0067
     20 C          62.6892   86.9905    9.9319 C.ar    1  UNL1        0.0020
     21 C          66.3458   92.1476   15.4385 C.ar    1  UNL1        0.1104
     22 N          65.0501   92.3737   16.1597 N.ar    1  UNL1       -0.1453
     23 N          64.0691   91.3432   15.6845 N.ar    1  UNL1       -0.1396
     24 C          64.7585   90.4803   14.6695 C.ar    1  UNL1        0.1525
     25 S          66.1655   90.9774   14.5175 S.2     1  UNL1       -0.0483
     26 C          67.0837   93.9660   14.6330 C.3     1  UNL1        0.0065
     27 C          67.6012   92.9506   15.6084 C.3     1  UNL1        0.0430
     28 C          68.1187   91.9353   16.5838 C.3     1  UNL1        0.0065
     29 C          68.8566   93.7538   15.7783 C.3     1  UNL1        0.0065
     30 C          62.9201   90.6700   11.9799 C.3     1  UNL1        0.1587
     31 N          63.9817   91.6314   11.5340 N.ar    1  UNL1       -0.2254
     32 C          64.5626   91.7257   10.1543 C.ar    1  UNL1        0.1975
     33 N          65.5887   92.8198   10.1572 N.ar    1  UNL1       -0.2007
     34 C          65.6419   93.4017   11.5387 C.ar    1  UNL1        0.2210
     35 N          64.6487   92.6672   12.3896 N.ar    1  UNL1       -0.1448
@<TRIPOS>BOND
     1    26    27    1
     2    27    28    1
     3    27    29    1
     4    27    21    1
     5    21    22   ar
     6    22    23   ar
     7    23    24   ar
     8    24     1    1
     9     1     2   ar
    10     2     3   ar
    11     3     6    1
    12     6     7   ar
    13     7     8   ar
    14     8     9   ar
    15     9    10    1
    16     9    11   ar
    17    11    12   ar
    18    12    13    1
    19     3     4   ar
    20     4    14    1
    21    14    15   ar
    22    15    16   ar
    23    16    17   ar
    24    17    18    1
    25    17    19   ar
    26    19    20   ar
    27     4     5   ar
    28     5    30    1
    29    30    31    1
    30    31    32   ar
    31    32    33   ar
    32    33    34   ar
    33    34    35   ar
    34    24    25   ar
    35    25    21   ar
    36     5     1   ar
    37    35    31   ar
    38    12     6   ar
    39    20    14   ar
@<TRIPOS>MOLECULE
*****
 35 39 0 0 0
SMALL
GASTEIGER

@<TRIPOS>ATOM
      1 C          63.0806   90.9009   11.1013 C.ar    1  UNL1        0.1261
      2 N          63.6721   91.8909   10.1421 N.ar    1  UNL1       -0.1632
      3 N          64.8079   92.5848   10.8339 N.ar    1  UNL1       -0.2290
      4 C          64.9183   92.0237   12.2206 C.ar    1  UNL1        0.0822
      5 C          63.8508   90.9830   12.3859 C.ar    1  UNL1        0.0413
      6 C          65.6801   93.6525   10.2427 C.ar    1  UNL1        0.0933
      7 C          65.1499   95.0453   10.0728 C.ar    1  UNL1        0.0209
      8 C          66.0221   96.1128    9.4817 C.ar    1  UNL1        0.0130
      9 C          67.4246   95.7876    9.0605 C.ar    1  UNL1        0.0586
     10 CL         68.2968   96.8552    8.4693 Cl      1  UNL1       -0.0822
     11 C          67.9548   94.3948    9.2304 C.ar    1  UNL1        0.0243
     12 C          67.0825   93.3272    9.8215 C.ar    1  UNL1        0.0761
     13 CL         67.6127   91.9343    9.9915 Cl      1  UNL1       -0.0806
     14 C          65.9203   92.4317   13.2596 C.ar    1  UNL1        0.0175
     15 C          66.2386   93.8829   13.4656 C.ar    1  UNL1        0.0020
     16 C          67.2406   94.2909   14.5046 C.ar    1  UNL1        0.0067
     17 C          67.9243   93.2476   15.3377 C.ar    1  UNL1        0.0346
     18 BR         68.9263   93.6556   16.3767 Br      1  UNL1       -0.0490
     19 C          67.6060   91.7962   15.1318 C.ar    1  UNL1        0.0067
     20 C          66.6040   91.3884   14.0927 C.ar    1  UNL1        0.0020
     21 C          60.4854   88.3337    9.7824 C.ar    1  UNL1        0.1104
     22 N          59.7943   88.8373   11.0148 N.ar    1  UNL1       -0.1453
     23 N          60.6824   89.8603   11.6589 N.ar    1  UNL1       -0.1396
     24 C          61.9223   89.9889   10.8245 C.ar    1  UNL1        0.1525
     25 S          61.8005   89.0454    9.6648 S.2     1  UNL1       -0.0483
     26 C          59.1983   88.3650    8.0964 C.3     1  UNL1        0.0065
     27 C          59.9544   87.3000    8.8341 C.3     1  UNL1        0.0430
     28 C          60.7104   86.2349    9.5718 C.3     1  UNL1        0.0065
     29 C          59.4234   86.2662    7.8858 C.3     1  UNL1        0.0065
     30 C          63.5979   90.1675   13.6192 C.3     1  UNL1        0.1587
     31 N          63.7267   88.6739   13.5703 N.ar    1  UNL1       -0.2254
     32 C          64.4128   87.8142   14.5903 C.ar    1  UNL1        0.1975
     33 N          64.3023   86.3867   14.1431 N.ar    1  UNL1       -0.2007
     34 C          63.5479   86.3641   12.8468 C.ar    1  UNL1        0.2210
     35 N          63.1923   87.7777   12.4927 N.ar    1  UNL1       -0.1448
@<TRIPOS>BOND
     1    26    27    1
     2    27    28    1
     3    27    29    1
     4    27    21    1
     5    21    22   ar
     6    22    23   ar
     7    23    24   ar
     8    24     1    1
     9     1     2   ar
    10     2     3   ar
    11     3     6    1
    12     6     7   ar
    13     7     8   ar
    14     8     9   ar
    15     9    10    1
    16     9    11   ar
    17    11    12   ar
    18    12    13    1
    19     3     4   ar
    20     4    14    1
    21    14    15   ar
    22    15    16   ar
    23    16    17   ar
    24    17    18    1
    25    17    19   ar
    26    19    20   ar
    27     4     5   ar
    28     5    30    1
    29    30    31    1
    30    31    32   ar
    31    32    33   ar
    32    33    34   ar
    33    34    35   ar
    34    24    25   ar
    35    25    21   ar
    36     5     1   ar
    37    35    31   ar
    38    12     6   ar
    39    20    14   ar
@<TRIPOS>MOLECULE
*****
 35 39 0 0 0
SMALL
GASTEIGER

@<TRIPOS>ATOM
      1 C          63.4596   90.5790   11.1958 C.ar    1  UNL1        0.1261
      2 N          63.9366   91.6199   10.2267 N.ar    1  UNL1       -0.1632
      3 N          65.0780   92.3567   10.8626 N.ar    1  UNL1       -0.2290
      4 C          65.3063   91.7712   12.2246 C.ar    1  UNL1        0.0822
      5 C          64.3061   90.6726   12.4306 C.ar    1  UNL1        0.0413
      6 C          65.8547   93.4816   10.2449 C.ar    1  UNL1        0.0933
      7 C          65.2634   94.8589   10.1882 C.ar    1  UNL1        0.0209
      8 C          66.0401   95.9837    9.5706 C.ar    1  UNL1        0.0130
      9 C          67.4081   95.7311    9.0096 C.ar    1  UNL1        0.0586
     10 CL         68.1849   96.8560    8.3919 Cl      1  UNL1       -0.0822
     11 C          67.9995   94.3538    9.0662 C.ar    1  UNL1        0.0243
     12 C          67.2227   93.2290    9.6839 C.ar    1  UNL1        0.0761
     13 CL         67.8141   91.8516    9.7406 Cl      1  UNL1       -0.0806
     14 C          66.3514   92.2078   13.2081 C.ar    1  UNL1        0.0175
     15 C          67.4645   91.2750   13.5833 C.ar    1  UNL1        0.0020
     16 C          68.5096   91.7116   14.5668 C.ar    1  UNL1        0.0067
     17 C          68.4416   93.0810   15.1751 C.ar    1  UNL1        0.0346
     18 BR         69.4867   93.5176   16.1585 Br      1  UNL1       -0.0490
     19 C          67.3285   94.0139   14.7999 C.ar    1  UNL1        0.0067
     20 C          66.2834   93.5772   13.8164 C.ar    1  UNL1        0.0020
     21 C          60.8561   87.9936    9.9297 C.ar    1  UNL1        0.1104
     22 N          60.3460   88.2645   11.3140 N.ar    1  UNL1       -0.1453
     23 N          61.2591   89.2660   11.9568 N.ar    1  UNL1       -0.1396
     24 C          62.3336   89.6140   10.9697 C.ar    1  UNL1        0.1525
     25 S          62.0845   88.8276    9.7169 S.2     1  UNL1       -0.0483
     26 C          61.0963   85.9381    9.4634 C.3     1  UNL1        0.0065
     27 C          60.2451   87.0537    8.9332 C.3     1  UNL1        0.0430
     28 C          59.3939   88.1691    8.4029 C.3     1  UNL1        0.0065
     29 C          59.6340   86.1137    7.9367 C.3     1  UNL1        0.0065
     30 C          64.1753   89.8176   13.6561 C.3     1  UNL1        0.1587
     31 N          63.9514   90.4553   14.9951 N.ar    1  UNL1       -0.2254
     32 C          63.2178   89.8433   16.1516 C.ar    1  UNL1        0.1975
     33 N          63.2348   90.8268   17.2840 N.ar    1  UNL1       -0.2007
     34 C          63.9789   92.0466   16.8275 C.ar    1  UNL1        0.2210
     35 N          64.4218   91.8170   15.4129 N.ar    1  UNL1       -0.1448
@<TRIPOS>BOND
     1    26    27    1
     2    27    28    1
     3    27    29    1
     4    27    21    1
     5    21    22   ar
     6    22    23   ar
     7    23    24   ar
     8    24     1    1
     9     1     2   ar
    10     2     3   ar
    11     3     6    1
    12     6     7   ar
    13     7     8   ar
    14     8     9   ar
    15     9    10    1
    16     9    11   ar
    17    11    12   ar
    18    12    13    1
    19     3     4   ar
    20     4    14    1
    21    14    15   ar
    22    15    16   ar
    23    16    17   ar
    24    17    18    1
    25    17    19   ar
    26    19    20   ar
    27     4     5   ar
    28     5    30    1
    29    30    31    1
    30    31    32   ar
    31    32    33   ar
    32    33    34   ar
    33    34    35   ar
    34    24    25   ar
    35    25    21   ar
    36     5     1   ar
    37    35    31   ar
    38    12     6   ar
    39    20    14   ar
