@<TRIPOS>MOLECULE
*****
 32 35 0 0 0
SMALL
GASTEIGER

@<TRIPOS>ATOM
      1 C          64.9689   91.9973   12.6294 C.ar    1  UNL1        0.0569
      2 C          65.7259   91.6766   13.8840 C.ar    1  UNL1        0.0340
      3 C          65.4155   90.4234   14.6475 C.ar    1  UNL1        0.0857
      4 N          64.3482   89.4909   14.1565 N.ar    1  UNL1       -0.2564
      5 C          63.5911   89.8116   12.9019 C.ar    1  UNL1        0.2672
      6 O          62.5238   88.8791   12.4109 O.2     1  UNL1       -0.2665
      7 C          63.9015   91.0648   12.1384 C.ar    1  UNL1        0.0758
      8 C          64.0378   88.2376   14.9201 C.ar    1  UNL1        0.1692
      9 C          64.3822   86.8399   14.4981 C.ar    1  UNL1        0.1153
     10 N          63.8859   85.9005   15.5569 N.ar    1  UNL1       -0.3024
     11 C          63.2348   86.7175   16.6333 C.ar    1  UNL1        0.1803
     12 N          63.3287   88.1619   16.2398 N.ar    1  UNL1       -0.2061
     13 C          64.0175   84.4064   15.5420 C.3     1  UNL1        0.1344
     14 C          63.4747   83.6171   14.3876 C.ar    1  UNL1        0.0004
     15 C          62.6416   82.3955   14.6400 C.ar    1  UNL1       -0.0024
     16 C          62.0988   81.6063   13.4857 C.ar    1  UNL1       -0.0003
     17 C          62.3891   82.0386   12.0791 C.ar    1  UNL1        0.0038
     18 C          63.2222   83.2602   11.8266 C.ar    1  UNL1        0.0712
     19 C          63.7650   84.0495   12.9809 C.ar    1  UNL1        0.0015
     20 C          63.5125   83.6926   10.4199 C.3     1  UNL1        0.4186
     21 F          63.8028   84.1249    9.0132 F       1  UNL1       -0.1659
     22 F          62.4931   84.7857   10.5455 F       1  UNL1       -0.1659
     23 F          64.5319   82.5994   10.2943 F       1  UNL1       -0.1659
     24 O          67.2369   92.0349   10.6660 O.2     1  UNL1       -0.2681
     25 C          66.4132   93.2694   10.8841 C.2     1  UNL1        0.2678
     26 N          65.2792   93.2506   11.8658 N.am    1  UNL1       -0.2790
     27 H          64.7386   94.0609   12.0089 H       1  UNL1        0.1552
     28 C          66.7235   94.5227   10.1205 C.ar    1  UNL1        0.1419
     29 C          66.3188   95.9141   10.5080 C.ar    1  UNL1        0.0607
     30 S          66.8382   96.8560    9.4623 S.2     1  UNL1       -0.0638
     31 C          67.5638   96.0465    8.4287 C.ar    1  UNL1        0.1347
     32 N          67.4929   94.6045    8.8355 N.ar    1  UNL1       -0.2317
@<TRIPOS>BOND
     1    24    25    2
     2    25    26   am
     3    26     1    1
     4     1     2   ar
     5     2     3   ar
     6     3     4   ar
     7     4     8    1
     8     8     9   ar
     9     9    10   ar
    10    10    13    1
    11    13    14    1
    12    14    15   ar
    13    15    16   ar
    14    16    17   ar
    15    17    18   ar
    16    18    20    1
    17    20    21    1
    18    20    22    1
    19    20    23    1
    20    18    19   ar
    21    10    11   ar
    22    11    12   ar
    23     4     5   ar
    24     5     6    2
    25     5     7   ar
    26    25    28    1
    27    28    29   ar
    28    29    30   ar
    29    30    31   ar
    30    31    32   ar
    31     7     1   ar
    32    32    28   ar
    33    12     8   ar
    34    19    14   ar
    35    26    27    1
@<TRIPOS>MOLECULE
*****
 32 35 0 0 0
SMALL
GASTEIGER

@<TRIPOS>ATOM
      1 C          64.7617   91.9871   12.3643 C.ar    1  UNL1        0.0569
      2 C          65.4981   91.8075   13.6587 C.ar    1  UNL1        0.0340
      3 C          65.2487   90.5917   14.5009 C.ar    1  UNL1        0.0857
      4 N          64.2630   89.5554   14.0488 N.ar    1  UNL1       -0.2564
      5 C          63.5266   89.7349   12.7544 C.ar    1  UNL1        0.2672
      6 O          62.5409   88.6986   12.3022 O.2     1  UNL1       -0.2665
      7 C          63.7760   90.9508   11.9121 C.ar    1  UNL1        0.0758
      8 C          64.0136   88.3395   14.8911 C.ar    1  UNL1        0.1692
      9 C          64.3956   86.9316   14.5420 C.ar    1  UNL1        0.1153
     10 N          63.9566   86.0399   15.6655 N.ar    1  UNL1       -0.3024
     11 C          63.3032   86.8969   16.7090 C.ar    1  UNL1        0.1803
     12 N          63.3385   88.3180   16.2304 N.ar    1  UNL1       -0.2061
     13 C          64.1389   84.5526   15.7336 C.3     1  UNL1        0.1344
     14 C          63.8148   83.7020   14.5414 C.ar    1  UNL1        0.0004
     15 C          64.4507   83.9961   13.2150 C.ar    1  UNL1       -0.0024
     16 C          64.1266   83.1455   12.0228 C.ar    1  UNL1       -0.0003
     17 C          63.1667   82.0007   12.1570 C.ar    1  UNL1        0.0038
     18 C          62.5308   81.7065   13.4833 C.ar    1  UNL1        0.0712
     19 C          62.8549   82.5572   14.6755 C.ar    1  UNL1        0.0015
     20 C          61.5710   80.5617   13.6175 C.3     1  UNL1        0.4186
     21 F          60.6111   79.4169   13.7516 F       1  UNL1       -0.1659
     22 F          60.6734   81.4136   14.4652 F       1  UNL1       -0.1659
     23 F          62.4685   79.7098   12.7697 F       1  UNL1       -0.1659
     24 O          67.4589   92.4271   11.1265 O.2     1  UNL1       -0.2681
     25 C          66.3596   93.4230   10.9031 C.2     1  UNL1        0.2678
     26 N          65.0111   93.2030   11.5219 N.am    1  UNL1       -0.2790
     27 H          64.2897   93.8566   11.3753 H       1  UNL1        0.1552
     28 C          66.6090   94.6389   10.0607 C.ar    1  UNL1        0.1419
     29 C          67.6928   94.7938    9.0353 C.ar    1  UNL1        0.0607
     30 S          67.5720   96.1640    8.4367 S.2     1  UNL1       -0.0638
     31 C          66.4136   96.8557    9.0923 C.ar    1  UNL1        0.1347
     32 N          65.8185   95.9131   10.0959 N.ar    1  UNL1       -0.2317
@<TRIPOS>BOND
     1    24    25    2
     2    25    26   am
     3    26     1    1
     4     1     2   ar
     5     2     3   ar
     6     3     4   ar
     7     4     8    1
     8     8     9   ar
     9     9    10   ar
    10    10    13    1
    11    13    14    1
    12    14    15   ar
    13    15    16   ar
    14    16    17   ar
    15    17    18   ar
    16    18    20    1
    17    20    21    1
    18    20    22    1
    19    20    23    1
    20    18    19   ar
    21    10    11   ar
    22    11    12   ar
    23     4     5   ar
    24     5     6    2
    25     5     7   ar
    26    25    28    1
    27    28    29   ar
    28    29    30   ar
    29    30    31   ar
    30    31    32   ar
    31     7     1   ar
    32    32    28   ar
    33    12     8   ar
    34    19    14   ar
    35    26    27    1
