@<TRIPOS>MOLECULE
*****
 30 33 0 0 0
SMALL
GASTEIGER

@<TRIPOS>ATOM
      1 C          61.7296   89.7198   11.0479 C.3     1  UNL1        0.0749
      2 C          62.5051   89.5136   12.3152 C.3     1  UNL1        0.0444
      3 C          63.6988   90.3720   12.6121 C.ar    1  UNL1       -0.0101
      4 C          64.1171   91.4366   11.6416 C.ar    1  UNL1       -0.0091
      5 C          65.3109   92.2950   11.9385 C.ar    1  UNL1       -0.0032
      6 C          66.0863   92.0888   13.2058 C.ar    1  UNL1        0.0010
      7 C          65.6681   91.0243   14.1763 C.ar    1  UNL1        0.0142
      8 C          64.4744   90.1659   13.8794 C.ar    1  UNL1        0.0436
      9 C          63.3416   91.6428   10.3743 C.3     1  UNL1        0.0954
     10 N          62.1479   90.7844   10.0775 N.3     1  UNL1       -0.2934
     11 H          62.3345   90.3171    9.1902 H       1  UNL1        0.1236
     12 N          64.0561   89.1013   14.8499 N.pl3   1  UNL1       -0.3049
     13 C          63.3194   89.4753   16.1019 C.3     1  UNL1        0.1079
     14 C          62.9012   88.4107   17.0723 C.3     1  UNL1        0.0903
     15 N          63.2196   86.9722   16.7908 N.3     1  UNL1       -0.2946
     16 C          63.9563   86.5982   15.5388 C.3     1  UNL1        0.0903
     17 C          64.3746   87.6628   14.5684 C.3     1  UNL1        0.1079
     18 H          62.3307   86.4725   16.7697 H       1  UNL1        0.1233
     19 C          60.5358   88.8614   10.7510 C.3     1  UNL1        0.0886
     20 N          60.6215   87.7955    9.6992 N.3     1  UNL1       -0.2653
     21 C          59.3856   87.3626    8.9676 C.3     1  UNL1        0.0900
     22 C          61.9431   87.1623    9.3789 C.3     1  UNL1        0.1184
     23 C          63.8257   82.4017   12.5083 C.3     1  UNL1        0.0326
     24 C          63.3550   83.5919   11.7259 C.ar    1  UNL1       -0.0030
     25 C          62.7228   84.7530   12.4346 C.ar    1  UNL1        0.0942
     26 N          62.2522   85.9431   11.6522 N.ar    1  UNL1       -0.2474
     27 C          62.4138   85.9721   10.1612 C.ar    1  UNL1        0.0712
     28 C          63.0460   84.8111    9.4526 C.ar    1  UNL1       -0.0072
     29 C          63.2075   84.8402    7.9616 C.3     1  UNL1        0.0323
     30 C          63.5166   83.6210   10.2349 C.ar    1  UNL1       -0.0058
@<TRIPOS>BOND
     1    23    24    1
     2    24    25   ar
     3    25    26   ar
     4    26    27   ar
     5    27    22    1
     6    22    20    1
     7    20    21    1
     8    20    19    1
     9     1    19    1
    10     1     2    1
    11     2     3    1
    12     3     4   ar
    13     4     5   ar
    14     5     6   ar
    15     6     7   ar
    16     7     8   ar
    17     8    12    1
    18    12    13    1
    19    13    14    1
    20    14    15    1
    21    15    16    1
    22    16    17    1
    23     4     9    1
    24     9    10    1
    25    27    28   ar
    26    28    29    1
    27    28    30   ar
    28    30    24   ar
    29    10     1    1
    30     8     3   ar
    31    17    12    1
    32    15    18    1
    33    10    11    1
@<TRIPOS>MOLECULE
*****
 30 33 0 0 0
SMALL
GASTEIGER

@<TRIPOS>ATOM
      1 C          63.0560   90.3012   11.4246 C.3     1  UNL1        0.0749
      2 C          64.1563   91.3204   11.4446 C.3     1  UNL1        0.0444
      3 C          64.8045   91.6989   12.7433 C.ar    1  UNL1       -0.0101
      4 C          64.3523   91.0580   14.0220 C.ar    1  UNL1       -0.0091
      5 C          65.0005   91.4365   15.3207 C.ar    1  UNL1       -0.0032
      6 C          66.1008   92.4558   15.3408 C.ar    1  UNL1        0.0010
      7 C          66.5529   93.0966   14.0621 C.ar    1  UNL1        0.0142
      8 C          65.9048   92.7181   12.7634 C.ar    1  UNL1        0.0436
      9 C          63.2520   90.0388   14.0019 C.3     1  UNL1        0.0954
     10 N          62.6039   89.6604   12.7032 N.3     1  UNL1       -0.2934
     11 H          61.6094   89.8654   12.7997 H       1  UNL1        0.1236
     12 N          66.3570   93.3590   11.4848 N.pl3   1  UNL1       -0.3049
     13 C          67.2913   92.6262   10.5681 C.3     1  UNL1        0.1079
     14 C          67.7434   93.2670    9.2895 C.3     1  UNL1        0.0903
     15 N          67.2613   94.6406    8.9275 N.3     1  UNL1       -0.2946
     16 C          66.3271   95.3733    9.8442 C.3     1  UNL1        0.0903
     17 C          65.8749   94.7324   11.1228 C.3     1  UNL1        0.1079
     18 H          66.7874   94.5587    8.0281 H       1  UNL1        0.1233
     19 C          62.4079   89.9227   10.1258 C.3     1  UNL1        0.0886
     20 N          61.3086   88.9023   10.1055 N.3     1  UNL1       -0.2653
     21 C          59.9908   89.2065   10.7543 C.3     1  UNL1        0.0900
     22 C          61.5272   87.5777    9.4365 C.3     1  UNL1        0.1184
     23 C          63.9754   83.0369   12.5006 C.3     1  UNL1        0.0326
     24 C          63.3633   84.1722   11.7346 C.ar    1  UNL1       -0.0030
     25 C          62.7481   85.3267   12.4684 C.ar    1  UNL1        0.0942
     26 N          62.1361   86.4618   11.7024 N.ar    1  UNL1       -0.2474
     27 C          62.1392   86.4424   10.2025 C.ar    1  UNL1        0.0712
     28 C          62.7544   85.2879    9.4687 C.ar    1  UNL1       -0.0072
     29 C          62.7576   85.2685    7.9688 C.3     1  UNL1        0.0323
     30 C          63.3664   84.1528   10.2347 C.ar    1  UNL1       -0.0058
@<TRIPOS>BOND
     1    23    24    1
     2    24    25   ar
     3    25    26   ar
     4    26    27   ar
     5    27    22    1
     6    22    20    1
     7    20    21    1
     8    20    19    1
     9     1    19    1
    10     1     2    1
    11     2     3    1
    12     3     4   ar
    13     4     5   ar
    14     5     6   ar
    15     6     7   ar
    16     7     8   ar
    17     8    12    1
    18    12    13    1
    19    13    14    1
    20    14    15    1
    21    15    16    1
    22    16    17    1
    23     4     9    1
    24     9    10    1
    25    27    28   ar
    26    28    29    1
    27    28    30   ar
    28    30    24   ar
    29    10     1    1
    30     8     3   ar
    31    17    12    1
    32    15    18    1
    33    10    11    1
@<TRIPOS>MOLECULE
*****
 30 33 0 0 0
SMALL
GASTEIGER

@<TRIPOS>ATOM
      1 C          60.9414   86.9534   10.5091 C.3     1  UNL1        0.0749
      2 C          61.7341   86.2623   11.5786 C.3     1  UNL1        0.0444
      3 C          62.6872   85.1630   11.2136 C.ar    1  UNL1       -0.0101
      4 C          62.8475   84.7549    9.7792 C.ar    1  UNL1       -0.0091
      5 C          63.8006   83.6555    9.4142 C.ar    1  UNL1       -0.0032
      6 C          64.5934   82.9645   10.4837 C.ar    1  UNL1        0.0010
      7 C          64.4331   83.3726   11.9182 C.ar    1  UNL1        0.0142
      8 C          63.4801   84.4719   12.2831 C.ar    1  UNL1        0.0436
      9 C          62.0547   85.4459    8.7097 C.3     1  UNL1        0.0954
     10 N          61.1016   86.5452    9.0746 N.3     1  UNL1       -0.2934
     11 H          60.1801   86.2572    8.7457 H       1  UNL1        0.1236
     12 N          63.3198   84.8801   13.7176 N.pl3   1  UNL1       -0.3049
     13 C          62.3430   84.1584   14.5981 C.3     1  UNL1        0.1079
     14 C          62.1827   84.5666   16.0326 C.3     1  UNL1        0.0903
     15 N          62.9992   85.6964   16.5866 N.3     1  UNL1       -0.2946
     16 C          63.9759   86.4181   15.7061 C.3     1  UNL1        0.0903
     17 C          64.1362   86.0099   14.2716 C.3     1  UNL1        0.1079
     18 H          63.5323   85.3182   17.3696 H       1  UNL1        0.1233
     19 C          59.9882   88.0527   10.8741 C.3     1  UNL1        0.0886
     20 N          60.4839   89.4623   11.0051 N.3     1  UNL1       -0.2653
     21 C          59.5472   90.5491   11.4430 C.3     1  UNL1        0.0900
     22 C          61.9162   89.7853   10.6983 C.3     1  UNL1        0.1184
     23 C          65.6234   91.4647   15.1070 C.3     1  UNL1        0.0326
     24 C          64.6966   91.0448   14.0048 C.ar    1  UNL1       -0.0030
     25 C          63.6841   89.9649   14.2469 C.ar    1  UNL1        0.0942
     26 N          62.7574   89.5451   13.1447 N.ar    1  UNL1       -0.2474
     27 C          62.8431   90.2052   11.8005 C.ar    1  UNL1        0.0712
     28 C          63.8555   91.2851   11.5584 C.ar    1  UNL1       -0.0072
     29 C          63.9412   91.9452   10.2142 C.3     1  UNL1        0.0323
     30 C          64.7823   91.7049   12.6606 C.ar    1  UNL1       -0.0058
@<TRIPOS>BOND
     1    23    24    1
     2    24    25   ar
     3    25    26   ar
     4    26    27   ar
     5    27    22    1
     6    22    20    1
     7    20    21    1
     8    20    19    1
     9     1    19    1
    10     1     2    1
    11     2     3    1
    12     3     4   ar
    13     4     5   ar
    14     5     6   ar
    15     6     7   ar
    16     7     8   ar
    17     8    12    1
    18    12    13    1
    19    13    14    1
    20    14    15    1
    21    15    16    1
    22    16    17    1
    23     4     9    1
    24     9    10    1
    25    27    28   ar
    26    28    29    1
    27    28    30   ar
    28    30    24   ar
    29    10     1    1
    30     8     3   ar
    31    17    12    1
    32    15    18    1
    33    10    11    1
@<TRIPOS>MOLECULE
*****
 30 33 0 0 0
SMALL
GASTEIGER

@<TRIPOS>ATOM
      1 C          64.2427   85.9049   14.7359 C.3     1  UNL1        0.0749
      2 C          63.6708   85.4886   13.4132 C.3     1  UNL1        0.0444
      3 C          63.4160   84.0379   13.1295 C.ar    1  UNL1       -0.0101
      4 C          63.7329   83.0035   14.1685 C.ar    1  UNL1       -0.0091
      5 C          63.4780   81.5528   13.8848 C.ar    1  UNL1       -0.0032
      6 C          62.9062   81.1365   12.5620 C.ar    1  UNL1        0.0010
      7 C          62.5892   82.1709   11.5230 C.ar    1  UNL1        0.0142
      8 C          62.8441   83.6216   11.8067 C.ar    1  UNL1        0.0436
      9 C          64.3048   83.4198   15.4913 C.3     1  UNL1        0.0954
     10 N          64.5596   84.8705   15.7749 N.3     1  UNL1       -0.2934
     11 H          65.5538   84.9592   15.9850 H       1  UNL1        0.1236
     12 N          62.5271   84.6559   10.7677 N.pl3   1  UNL1       -0.3049
     13 C          63.2095   84.6115    9.4325 C.3     1  UNL1        0.1079
     14 C          62.8925   85.6459    8.3935 C.3     1  UNL1        0.0903
     15 N          61.8932   86.7247    8.6896 N.3     1  UNL1       -0.2946
     16 C          61.2109   86.7691   10.0247 C.3     1  UNL1        0.0903
     17 C          61.5279   85.7347   11.0637 C.3     1  UNL1        0.1079
     18 H          61.1588   86.6469    7.9861 H       1  UNL1        0.1233
     19 C          64.4976   87.3556   15.0197 C.3     1  UNL1        0.0886
     20 N          63.5652   88.1205   15.9117 N.3     1  UNL1       -0.2653
     21 C          62.9456   87.4488   17.1012 C.3     1  UNL1        0.0900
     22 C          63.2524   89.5570   15.6142 C.3     1  UNL1        0.1184
     23 C          63.3723   91.5434    9.9537 C.3     1  UNL1        0.0326
     24 C          63.3423   91.0467   11.3689 C.ar    1  UNL1       -0.0030
     25 C          62.2298   90.1504   11.8257 C.ar    1  UNL1        0.0942
     26 N          62.1998   89.6539   13.2408 N.ar    1  UNL1       -0.2474
     27 C          63.2824   90.0536   14.1990 C.ar    1  UNL1        0.0712
     28 C          64.3950   90.9500   13.7422 C.ar    1  UNL1       -0.0072
     29 C          65.4776   91.3498   14.7004 C.3     1  UNL1        0.0323
     30 C          64.4249   91.4465   12.3271 C.ar    1  UNL1       -0.0058
@<TRIPOS>BOND
     1    23    24    1
     2    24    25   ar
     3    25    26   ar
     4    26    27   ar
     5    27    22    1
     6    22    20    1
     7    20    21    1
     8    20    19    1
     9     1    19    1
    10     1     2    1
    11     2     3    1
    12     3     4   ar
    13     4     5   ar
    14     5     6   ar
    15     6     7   ar
    16     7     8   ar
    17     8    12    1
    18    12    13    1
    19    13    14    1
    20    14    15    1
    21    15    16    1
    22    16    17    1
    23     4     9    1
    24     9    10    1
    25    27    28   ar
    26    28    29    1
    27    28    30   ar
    28    30    24   ar
    29    10     1    1
    30     8     3   ar
    31    17    12    1
    32    15    18    1
    33    10    11    1
@<TRIPOS>MOLECULE
*****
 30 33 0 0 0
SMALL
GASTEIGER

@<TRIPOS>ATOM
      1 C          62.9322   90.5286   12.1068 C.3     1  UNL1        0.0749
      2 C          64.1109   91.4397   11.9320 C.3     1  UNL1        0.0444
      3 C          64.9397   91.8300   13.1198 C.ar    1  UNL1       -0.0101
      4 C          64.5898   91.3093   14.4823 C.ar    1  UNL1       -0.0091
      5 C          65.4186   91.6997   15.6700 C.ar    1  UNL1       -0.0032
      6 C          66.5973   92.6108   15.4952 C.ar    1  UNL1        0.0010
      7 C          66.9472   93.1315   14.1327 C.ar    1  UNL1        0.0142
      8 C          66.1184   92.7412   12.9450 C.ar    1  UNL1        0.0436
      9 C          63.4111   90.3982   14.6570 C.3     1  UNL1        0.0954
     10 N          62.5823   90.0078   13.4693 N.3     1  UNL1       -0.2934
     11 H          61.6279   90.3104   13.6640 H       1  UNL1        0.1236
     12 N          66.4683   93.2619   11.5825 N.pl3   1  UNL1       -0.3049
     13 C          67.3460   92.4537   10.6733 C.3     1  UNL1        0.1079
     14 C          67.6959   92.9744    9.3108 C.3     1  UNL1        0.0903
     15 N          67.1681   94.3034    8.8575 N.3     1  UNL1       -0.2946
     16 C          66.2905   95.1115    9.7667 C.3     1  UNL1        0.0903
     17 C          65.9406   94.5908   11.1292 C.3     1  UNL1        0.1079
     18 H          66.6325   94.1327    8.0064 H       1  UNL1        0.1233
     19 C          62.1034   90.1382   10.9191 C.3     1  UNL1        0.0886
     20 N          60.6750   89.7201   11.1060 N.3     1  UNL1       -0.2653
     21 C          59.6035   90.7587   11.2594 C.3     1  UNL1        0.0900
     22 C          60.3181   88.2636   11.1396 C.3     1  UNL1        0.1184
     23 C          61.9302   84.6745    6.6097 C.3     1  UNL1        0.0326
     24 C          61.5271   85.5718    7.7422 C.ar    1  UNL1       -0.0030
     25 C          60.3526   86.4920    7.5885 C.ar    1  UNL1        0.0942
     26 N          59.9496   87.3892    8.7210 N.ar    1  UNL1       -0.2474
     27 C          60.7211   87.3663   10.0071 C.ar    1  UNL1        0.0712
     28 C          61.8957   86.4462   10.1608 C.ar    1  UNL1       -0.0072
     29 C          62.6673   86.4232   11.4470 C.3     1  UNL1        0.0323
     30 C          62.2987   85.5489    9.0284 C.ar    1  UNL1       -0.0058
@<TRIPOS>BOND
     1    23    24    1
     2    24    25   ar
     3    25    26   ar
     4    26    27   ar
     5    27    22    1
     6    22    20    1
     7    20    21    1
     8    20    19    1
     9     1    19    1
    10     1     2    1
    11     2     3    1
    12     3     4   ar
    13     4     5   ar
    14     5     6   ar
    15     6     7   ar
    16     7     8   ar
    17     8    12    1
    18    12    13    1
    19    13    14    1
    20    14    15    1
    21    15    16    1
    22    16    17    1
    23     4     9    1
    24     9    10    1
    25    27    28   ar
    26    28    29    1
    27    28    30   ar
    28    30    24   ar
    29    10     1    1
    30     8     3   ar
    31    17    12    1
    32    15    18    1
    33    10    11    1
@<TRIPOS>MOLECULE
*****
 30 33 0 0 0
SMALL
GASTEIGER

@<TRIPOS>ATOM
      1 C          64.2387   86.5948   14.5336 C.3     1  UNL1        0.0749
      2 C          63.6461   85.9874   13.2967 C.3     1  UNL1        0.0444
      3 C          63.3249   84.5227   13.2603 C.ar    1  UNL1       -0.0101
      4 C          63.5963   83.6653   14.4608 C.ar    1  UNL1       -0.0091
      5 C          63.2751   82.2005   14.4244 C.ar    1  UNL1       -0.0032
      6 C          62.6825   81.5932   13.1875 C.ar    1  UNL1        0.0010
      7 C          62.4111   82.4506   11.9870 C.ar    1  UNL1        0.0142
      8 C          62.7323   83.9153   12.0234 C.ar    1  UNL1        0.0436
      9 C          64.1889   84.2726   15.6977 C.3     1  UNL1        0.0954
     10 N          64.5101   85.7374   15.7341 N.3     1  UNL1       -0.2934
     11 H          65.5077   85.8152   15.9321 H       1  UNL1        0.1236
     12 N          62.4609   84.7727   10.8229 N.pl3   1  UNL1       -0.3049
     13 C          61.4129   85.8441   10.8879 C.3     1  UNL1        0.1079
     14 C          61.1415   86.7015    9.6874 C.3     1  UNL1        0.0903
     15 N          61.9180   86.4875    8.4219 N.3     1  UNL1       -0.2946
     16 C          62.9659   85.4162    8.3570 C.3     1  UNL1        0.0903
     17 C          63.2373   84.5588    9.5575 C.3     1  UNL1        0.1079
     18 H          62.3850   87.3693    8.2103 H       1  UNL1        0.1233
     19 C          64.5600   88.0596   14.5700 C.3     1  UNL1        0.0886
     20 N          63.5082   89.0481   14.9782 N.3     1  UNL1       -0.2653
     21 C          63.1215   89.1787   16.4216 C.3     1  UNL1        0.0900
     22 C          62.8432   89.9061   13.9430 C.3     1  UNL1        0.1184
     23 C          66.1443   93.5114   10.4637 C.3     1  UNL1        0.0326
     24 C          65.3190   92.6100   11.3336 C.ar    1  UNL1       -0.0030
     25 C          65.5641   92.5649   12.8127 C.ar    1  UNL1        0.0942
     26 N          64.7388   91.6636   13.6825 N.ar    1  UNL1       -0.2474
     27 C          63.6685   90.8074   13.0731 C.ar    1  UNL1        0.0712
     28 C          63.4234   90.8525   11.5940 C.ar    1  UNL1       -0.0072
     29 C          62.3531   89.9963   10.9846 C.3     1  UNL1        0.0323
     30 C          64.2487   91.7538   10.7242 C.ar    1  UNL1       -0.0058
@<TRIPOS>BOND
     1    23    24    1
     2    24    25   ar
     3    25    26   ar
     4    26    27   ar
     5    27    22    1
     6    22    20    1
     7    20    21    1
     8    20    19    1
     9     1    19    1
    10     1     2    1
    11     2     3    1
    12     3     4   ar
    13     4     5   ar
    14     5     6   ar
    15     6     7   ar
    16     7     8   ar
    17     8    12    1
    18    12    13    1
    19    13    14    1
    20    14    15    1
    21    15    16    1
    22    16    17    1
    23     4     9    1
    24     9    10    1
    25    27    28   ar
    26    28    29    1
    27    28    30   ar
    28    30    24   ar
    29    10     1    1
    30     8     3   ar
    31    17    12    1
    32    15    18    1
    33    10    11    1
@<TRIPOS>MOLECULE
*****
 30 33 0 0 0
SMALL
GASTEIGER

@<TRIPOS>ATOM
      1 C          63.1052   91.0327   12.3639 C.3     1  UNL1        0.0749
      2 C          64.4145   91.6882   12.0386 C.3     1  UNL1        0.0444
      3 C          65.4849   91.7853   13.0850 C.ar    1  UNL1       -0.0101
      4 C          65.2459   91.2269   14.4565 C.ar    1  UNL1       -0.0091
      5 C          66.3164   91.3241   15.5028 C.ar    1  UNL1       -0.0032
      6 C          67.6258   91.9795   15.1776 C.ar    1  UNL1        0.0010
      7 C          67.8648   92.5379   13.8061 C.ar    1  UNL1        0.0142
      8 C          66.7944   92.4408   12.7598 C.ar    1  UNL1        0.0436
      9 C          63.9365   90.5715   14.7817 C.3     1  UNL1        0.0954
     10 N          62.8661   90.4744   13.7354 N.3     1  UNL1       -0.2934
     11 H          62.0454   90.9514   14.1086 H       1  UNL1        0.1236
     12 N          67.0334   92.9991   11.3882 N.pl3   1  UNL1       -0.3049
     13 C          67.8766   92.2409   10.4062 C.3     1  UNL1        0.1079
     14 C          68.1156   92.7993    9.0347 C.3     1  UNL1        0.0903
     15 N          67.5115   94.1159    8.6452 N.3     1  UNL1       -0.2946
     16 C          66.6684   94.8740    9.6271 C.3     1  UNL1        0.0903
     17 C          66.4293   94.3157   10.9987 C.3     1  UNL1        0.1079
     18 H          66.9265   93.9412    7.8280 H       1  UNL1        0.1233
     19 C          62.0347   90.9356   11.3175 C.3     1  UNL1        0.0886
     20 N          61.3961   89.6117   11.0186 N.3     1  UNL1       -0.2653
     21 C          59.9376   89.4020   11.2996 C.3     1  UNL1        0.0900
     22 C          62.2158   88.4975   10.4385 C.3     1  UNL1        0.1184
     23 C          63.4311   83.6356   13.7378 C.3     1  UNL1        0.0326
     24 C          63.1273   84.8511   12.9130 C.ar    1  UNL1       -0.0030
     25 C          63.5025   86.2129   13.4177 C.ar    1  UNL1        0.0942
     26 N          63.1987   87.4283   12.5928 N.ar    1  UNL1       -0.2474
     27 C          62.5197   87.2820   11.2633 C.ar    1  UNL1        0.0712
     28 C          62.1445   85.9202   10.7587 C.ar    1  UNL1       -0.0072
     29 C          61.4655   85.7738    9.4292 C.3     1  UNL1        0.0323
     30 C          62.4483   84.7048   11.5835 C.ar    1  UNL1       -0.0058
@<TRIPOS>BOND
     1    23    24    1
     2    24    25   ar
     3    25    26   ar
     4    26    27   ar
     5    27    22    1
     6    22    20    1
     7    20    21    1
     8    20    19    1
     9     1    19    1
    10     1     2    1
    11     2     3    1
    12     3     4   ar
    13     4     5   ar
    14     5     6   ar
    15     6     7   ar
    16     7     8   ar
    17     8    12    1
    18    12    13    1
    19    13    14    1
    20    14    15    1
    21    15    16    1
    22    16    17    1
    23     4     9    1
    24     9    10    1
    25    27    28   ar
    26    28    29    1
    27    28    30   ar
    28    30    24   ar
    29    10     1    1
    30     8     3   ar
    31    17    12    1
    32    15    18    1
    33    10    11    1
@<TRIPOS>MOLECULE
*****
 30 33 0 0 0
SMALL
GASTEIGER

@<TRIPOS>ATOM
      1 C          64.0985   86.8005   14.5206 C.3     1  UNL1        0.0749
      2 C          63.5955   86.0373   13.3314 C.3     1  UNL1        0.0444
      3 C          63.1779   84.6044   13.4816 C.ar    1  UNL1       -0.0101
      4 C          63.2635   83.9348   14.8211 C.ar    1  UNL1       -0.0091
      5 C          62.8460   82.5019   14.9713 C.ar    1  UNL1       -0.0032
      6 C          62.3429   81.7387   13.7820 C.ar    1  UNL1        0.0010
      7 C          62.2573   82.4083   12.4425 C.ar    1  UNL1        0.0142
      8 C          62.6748   83.8411   12.2923 C.ar    1  UNL1        0.0436
      9 C          63.7666   84.6980   16.0104 C.3     1  UNL1        0.0954
     10 N          64.1841   86.1308   15.8601 N.3     1  UNL1       -0.2934
     11 H          65.1589   86.1859   16.1551 H       1  UNL1        0.1236
     12 N          62.5893   84.5108   10.9528 N.pl3   1  UNL1       -0.3049
     13 C          61.5819   85.5978   10.7207 C.3     1  UNL1        0.1079
     14 C          61.4963   86.2674    9.3812 C.3     1  UNL1        0.0903
     15 N          62.4181   85.8501    8.2738 N.3     1  UNL1       -0.2946
     16 C          63.4254   84.7632    8.5059 C.3     1  UNL1        0.0903
     17 C          63.5110   84.0935    9.8454 C.3     1  UNL1        0.1079
     18 H          62.9404   86.6812    7.9964 H       1  UNL1        0.1233
     19 C          64.5161   88.2334   14.3704 C.3     1  UNL1        0.0886
     20 N          63.6241   89.3308   14.8703 N.3     1  UNL1       -0.2653
     21 C          63.0647   89.2680   16.2607 C.3     1  UNL1        0.0900
     22 C          63.2913   90.4911   13.9797 C.3     1  UNL1        0.1184
     23 C          60.3554   89.5734    8.8281 C.3     1  UNL1        0.0326
     24 C          61.0894   89.8028   10.1161 C.ar    1  UNL1       -0.0030
     25 C          60.5488   89.2414   11.3977 C.ar    1  UNL1        0.0942
     26 N          61.2828   89.4708   12.6855 N.ar    1  UNL1       -0.2474
     27 C          62.5574   90.2617   12.6918 C.ar    1  UNL1        0.0712
     28 C          63.0979   90.8231   11.4102 C.ar    1  UNL1       -0.0072
     29 C          64.3725   91.6139   11.4164 C.3     1  UNL1        0.0323
     30 C          62.3640   90.5937   10.1223 C.ar    1  UNL1       -0.0058
@<TRIPOS>BOND
     1    23    24    1
     2    24    25   ar
     3    25    26   ar
     4    26    27   ar
     5    27    22    1
     6    22    20    1
     7    20    21    1
     8    20    19    1
     9     1    19    1
    10     1     2    1
    11     2     3    1
    12     3     4   ar
    13     4     5   ar
    14     5     6   ar
    15     6     7   ar
    16     7     8   ar
    17     8    12    1
    18    12    13    1
    19    13    14    1
    20    14    15    1
    21    15    16    1
    22    16    17    1
    23     4     9    1
    24     9    10    1
    25    27    28   ar
    26    28    29    1
    27    28    30   ar
    28    30    24   ar
    29    10     1    1
    30     8     3   ar
    31    17    12    1
    32    15    18    1
    33    10    11    1
@<TRIPOS>MOLECULE
*****
 30 33 0 0 0
SMALL
GASTEIGER

@<TRIPOS>ATOM
      1 C          63.6843   86.5213   13.5802 C.3     1  UNL1        0.0749
      2 C          63.8421   88.0128   13.5596 C.3     1  UNL1        0.0444
      3 C          63.2851   88.8102   12.4178 C.ar    1  UNL1       -0.0101
      4 C          62.5703   88.1161   11.2965 C.ar    1  UNL1       -0.0091
      5 C          62.0133   88.9136   10.1546 C.ar    1  UNL1       -0.0032
      6 C          62.1710   90.4051   10.1341 C.ar    1  UNL1        0.0010
      7 C          62.8858   91.0992   11.2554 C.ar    1  UNL1        0.0142
      8 C          63.4428   90.3018   12.3972 C.ar    1  UNL1        0.0436
      9 C          62.4126   86.6246   11.3170 C.3     1  UNL1        0.0954
     10 N          62.9696   85.8272   12.4589 N.3     1  UNL1       -0.2934
     11 H          63.6286   85.1597   12.0581 H       1  UNL1        0.1236
     12 N          64.1576   90.9959   13.5185 N.pl3   1  UNL1       -0.3049
     13 C          63.6686   90.8426   14.9284 C.3     1  UNL1        0.1079
     14 C          64.3834   91.5367   16.0497 C.3     1  UNL1        0.0903
     15 N          65.5871   92.3841   15.7611 N.3     1  UNL1       -0.2946
     16 C          66.0759   92.5374   14.3514 C.3     1  UNL1        0.0903
     17 C          65.3612   91.8433   13.2301 C.3     1  UNL1        0.1079
     18 H          66.3594   91.9917   16.2996 H       1  UNL1        0.1233
     19 C          64.2414   85.7238   14.7221 C.3     1  UNL1        0.0886
     20 N          63.3383   84.8408   15.5312 N.3     1  UNL1       -0.2653
     21 C          62.3968   85.4452   16.5304 C.3     1  UNL1        0.0900
     22 C          63.3766   83.3534   15.3411 C.3     1  UNL1        0.1184
     23 C          63.4560   81.0375    9.8066 C.3     1  UNL1        0.0326
     24 C          63.4362   81.6165   11.1902 C.ar    1  UNL1       -0.0030
     25 C          64.4420   82.6580   11.5819 C.ar    1  UNL1        0.0942
     26 N          64.4221   83.2370   12.9655 N.ar    1  UNL1       -0.2474
     27 C          63.3965   82.7744   13.9574 C.ar    1  UNL1        0.0712
     28 C          62.3906   81.7328   13.5658 C.ar    1  UNL1       -0.0072
     29 C          61.3650   81.2702   14.5577 C.3     1  UNL1        0.0323
     30 C          62.4105   81.1539   12.1822 C.ar    1  UNL1       -0.0058
@<TRIPOS>BOND
     1    23    24    1
     2    24    25   ar
     3    25    26   ar
     4    26    27   ar
     5    27    22    1
     6    22    20    1
     7    20    21    1
     8    20    19    1
     9     1    19    1
    10     1     2    1
    11     2     3    1
    12     3     4   ar
    13     4     5   ar
    14     5     6   ar
    15     6     7   ar
    16     7     8   ar
    17     8    12    1
    18    12    13    1
    19    13    14    1
    20    14    15    1
    21    15    16    1
    22    16    17    1
    23     4     9    1
    24     9    10    1
    25    27    28   ar
    26    28    29    1
    27    28    30   ar
    28    30    24   ar
    29    10     1    1
    30     8     3   ar
    31    17    12    1
    32    15    18    1
    33    10    11    1
