@<TRIPOS>MOLECULE
*****
 25 27 0 0 0
SMALL
GASTEIGER

@<TRIPOS>ATOM
      1 C          64.2610   82.0572   13.3384 C.3     1  UNL1        0.1363
      2 N          63.6273   83.2127   12.6220 N.ar    1  UNL1       -0.2669
      3 C          62.8717   84.2519   13.3960 C.ar    1  UNL1        0.2005
      4 N          62.2380   85.4074   12.6795 N.ar    1  UNL1       -0.2150
      5 C          62.3598   85.5236   11.1890 C.ar    1  UNL1        0.0890
      6 C          63.1154   84.4844   10.4150 C.ar    1  UNL1        0.0800
      7 C          63.7491   83.3289   11.1315 C.ar    1  UNL1        0.2645
      8 O          64.5046   82.2897   10.3574 O.2     1  UNL1       -0.2668
      9 C          61.7261   86.6791   10.4725 C.ar    1  UNL1        0.0210
     10 C          60.8055   86.4299    9.3149 C.ar    1  UNL1        0.0222
     11 C          60.1718   87.5854    8.5984 C.ar    1  UNL1        0.0989
     12 N          60.4587   88.9900    9.0396 N.ar    1  UNL1       -0.2423
     13 C          61.3794   89.2391   10.1973 C.ar    1  UNL1        0.0989
     14 C          62.0131   88.0837   10.9138 C.ar    1  UNL1        0.0222
     15 N          62.7499   84.1357   14.8865 N.pl3   1  UNL1       -0.2977
     16 H          62.0771   83.5343   15.2800 H       1  UNL1        0.1500
     17 C          63.6532   84.9358   15.7775 C.3     1  UNL1        0.1596
     18 C          63.1112   86.1135   16.5321 C.2     1  UNL1        0.1928
     19 O          62.2362   85.8978   17.7312 O.2     1  UNL1       -0.2895
     20 C          63.4442   87.5069   16.0876 C.ar    1  UNL1        0.0364
     21 C          63.0462   88.6795   16.9341 C.ar    1  UNL1        0.0029
     22 C          63.3792   90.0728   16.4896 C.ar    1  UNL1        0.0001
     23 C          64.1102   90.2936   15.1985 C.ar    1  UNL1        0.0000
     24 C          64.5083   89.1210   14.3520 C.ar    1  UNL1        0.0001
     25 C          64.1752   87.7276   14.7966 C.ar    1  UNL1        0.0029
@<TRIPOS>BOND
     1     1     2    1
     2     2     3   ar
     3     3    15    1
     4    15    17    1
     5    17    18    1
     6    18    19    2
     7    18    20    1
     8    20    21   ar
     9    21    22   ar
    10    22    23   ar
    11    23    24   ar
    12    24    25   ar
    13     3     4   ar
    14     4     5   ar
    15     5     9    1
    16     9    10   ar
    17    10    11   ar
    18    11    12   ar
    19    12    13   ar
    20    13    14   ar
    21     5     6   ar
    22     6     7   ar
    23     7     8    2
    24     7     2   ar
    25    25    20   ar
    26    14     9   ar
    27    15    16    1
@<TRIPOS>MOLECULE
*****
 25 27 0 0 0
SMALL
GASTEIGER

@<TRIPOS>ATOM
      1 C          60.1442   90.1344   10.1857 C.3     1  UNL1        0.1363
      2 N          60.8062   88.8170   10.4618 N.ar    1  UNL1       -0.2669
      3 C          61.7821   88.6908   11.5939 C.ar    1  UNL1        0.2005
      4 N          62.4442   87.3735   11.8700 N.ar    1  UNL1       -0.2150
      5 C          62.1304   86.1824   11.0141 C.ar    1  UNL1        0.0890
      6 C          61.1545   86.3086    9.8820 C.ar    1  UNL1        0.0800
      7 C          60.4924   87.6259    9.6059 C.ar    1  UNL1        0.2645
      8 O          59.5165   87.7521    8.4737 O.2     1  UNL1       -0.2668
      9 C          62.7925   84.8650   11.2902 C.ar    1  UNL1        0.0210
     10 C          62.8016   84.3075   12.6827 C.ar    1  UNL1        0.0222
     11 C          63.4637   82.9901   12.9589 C.ar    1  UNL1        0.0989
     12 N          64.1167   82.2303   11.8425 N.ar    1  UNL1       -0.2423
     13 C          64.1076   82.7879   10.4501 C.ar    1  UNL1        0.0989
     14 C          63.4455   84.1052   10.1739 C.ar    1  UNL1        0.0222
     15 N          62.0960   89.8820   12.4499 N.pl3   1  UNL1       -0.2977
     16 H          61.3730   90.4843   12.7395 H       1  UNL1        0.1500
     17 C          63.5113   90.1555   12.8647 C.3     1  UNL1        0.1596
     18 C          63.8756   90.1772   14.3196 C.2     1  UNL1        0.1928
     19 O          64.3687   91.4456   14.9505 O.2     1  UNL1       -0.2895
     20 C          63.7469   88.9304   15.1437 C.ar    1  UNL1        0.0364
     21 C          64.3154   87.6368   14.6404 C.ar    1  UNL1        0.0029
     22 C          64.1867   86.3900   15.4644 C.ar    1  UNL1        0.0001
     23 C          63.4895   86.4369   16.7918 C.ar    1  UNL1        0.0000
     24 C          62.9210   87.7306   17.2950 C.ar    1  UNL1        0.0001
     25 C          63.0498   88.9774   16.4709 C.ar    1  UNL1        0.0029
@<TRIPOS>BOND
     1     1     2    1
     2     2     3   ar
     3     3    15    1
     4    15    17    1
     5    17    18    1
     6    18    19    2
     7    18    20    1
     8    20    21   ar
     9    21    22   ar
    10    22    23   ar
    11    23    24   ar
    12    24    25   ar
    13     3     4   ar
    14     4     5   ar
    15     5     9    1
    16     9    10   ar
    17    10    11   ar
    18    11    12   ar
    19    12    13   ar
    20    13    14   ar
    21     5     6   ar
    22     6     7   ar
    23     7     8    2
    24     7     2   ar
    25    25    20   ar
    26    14     9   ar
    27    15    16    1
@<TRIPOS>MOLECULE
*****
 25 27 0 0 0
SMALL
GASTEIGER

@<TRIPOS>ATOM
      1 C          64.5383   83.2099   13.4625 C.3     1  UNL1        0.1363
      2 N          63.7453   84.1135   12.5654 N.ar    1  UNL1       -0.2669
      3 C          63.2720   85.4443   13.0702 C.ar    1  UNL1        0.2005
      4 N          62.4791   86.3479   12.1732 N.ar    1  UNL1       -0.2150
      5 C          62.1593   85.9207   10.7713 C.ar    1  UNL1        0.0890
      6 C          62.6326   84.5898   10.2665 C.ar    1  UNL1        0.0800
      7 C          63.4256   83.6862   11.1636 C.ar    1  UNL1        0.2645
      8 O          63.8988   82.3553   10.6587 O.2     1  UNL1       -0.2668
      9 C          61.3664   86.8243    9.8743 C.ar    1  UNL1        0.0210
     10 C          60.5130   86.2412    8.7872 C.ar    1  UNL1        0.0222
     11 C          59.7201   87.1448    7.8901 C.ar    1  UNL1        0.0989
     12 N          59.7804   88.6314    8.0802 N.ar    1  UNL1       -0.2423
     13 C          60.6337   89.2145    9.1673 C.ar    1  UNL1        0.0989
     14 C          61.4267   88.3109   10.0643 C.ar    1  UNL1        0.0222
     15 N          63.5917   85.8716   14.4721 N.pl3   1  UNL1       -0.2977
     16 H          63.1862   85.3998   15.2351 H       1  UNL1        0.1500
     17 C          64.5293   87.0177   14.7115 C.3     1  UNL1        0.1596
     18 C          63.9852   88.3726   15.0554 C.2     1  UNL1        0.1928
     19 O          63.2113   88.5698   16.3251 O.2     1  UNL1       -0.2895
     20 C          64.2151   89.5303   14.1297 C.ar    1  UNL1        0.0364
     21 C          63.4170   89.6493   12.8652 C.ar    1  UNL1        0.0029
     22 C          63.6468   90.8070   11.9395 C.ar    1  UNL1        0.0001
     23 C          64.6748   91.8456   12.2782 C.ar    1  UNL1        0.0000
     24 C          65.4728   91.7265   13.5427 C.ar    1  UNL1        0.0001
     25 C          65.2429   90.5688   14.4685 C.ar    1  UNL1        0.0029
@<TRIPOS>BOND
     1     1     2    1
     2     2     3   ar
     3     3    15    1
     4    15    17    1
     5    17    18    1
     6    18    19    2
     7    18    20    1
     8    20    21   ar
     9    21    22   ar
    10    22    23   ar
    11    23    24   ar
    12    24    25   ar
    13     3     4   ar
    14     4     5   ar
    15     5     9    1
    16     9    10   ar
    17    10    11   ar
    18    11    12   ar
    19    12    13   ar
    20    13    14   ar
    21     5     6   ar
    22     6     7   ar
    23     7     8    2
    24     7     2   ar
    25    25    20   ar
    26    14     9   ar
    27    15    16    1
@<TRIPOS>MOLECULE
*****
 25 27 0 0 0
SMALL
GASTEIGER

@<TRIPOS>ATOM
      1 C          60.1126   89.0096    8.7086 C.3     1  UNL1        0.1363
      2 N          60.7986   87.9774    9.5536 N.ar    1  UNL1       -0.2669
      3 C          61.3949   88.3649   10.8742 C.ar    1  UNL1        0.2005
      4 N          62.0808   87.3327   11.7192 N.ar    1  UNL1       -0.2150
      5 C          62.1705   85.9130   11.2436 C.ar    1  UNL1        0.0890
      6 C          61.5741   85.5255    9.9229 C.ar    1  UNL1        0.0800
      7 C          60.8882   86.5577    9.0779 C.ar    1  UNL1        0.2645
      8 O          60.2918   86.1701    7.7572 O.2     1  UNL1       -0.2668
      9 C          62.8564   84.8808   12.0886 C.ar    1  UNL1        0.0210
     10 C          62.8648   83.4440   11.6580 C.ar    1  UNL1        0.0222
     11 C          63.5507   82.4118   12.5030 C.ar    1  UNL1        0.0989
     12 N          64.2283   82.8164   13.7786 N.ar    1  UNL1       -0.2423
     13 C          64.2199   84.2532   14.2092 C.ar    1  UNL1        0.0989
     14 C          63.5340   85.2854   13.3642 C.ar    1  UNL1        0.0222
     15 N          61.3053   89.7847   11.3499 N.pl3   1  UNL1       -0.2977
     16 H          60.4248   90.2047   11.4828 H       1  UNL1        0.1500
     17 C          62.5571   90.5646   11.6232 C.3     1  UNL1        0.1596
     18 C          63.1787   90.5312   12.9880 C.2     1  UNL1        0.1928
     19 O          62.4505   89.8832   14.1281 O.2     1  UNL1       -0.2895
     20 C          64.5283   91.1459   13.2127 C.ar    1  UNL1        0.0364
     21 C          65.0725   92.1404   12.2304 C.ar    1  UNL1        0.0029
     22 C          66.4221   92.7550   12.4551 C.ar    1  UNL1        0.0001
     23 C          67.2278   92.3752   13.6621 C.ar    1  UNL1        0.0000
     24 C          66.6836   91.3807   14.6444 C.ar    1  UNL1        0.0001
     25 C          65.3339   90.7660   14.4197 C.ar    1  UNL1        0.0029
@<TRIPOS>BOND
     1     1     2    1
     2     2     3   ar
     3     3    15    1
     4    15    17    1
     5    17    18    1
     6    18    19    2
     7    18    20    1
     8    20    21   ar
     9    21    22   ar
    10    22    23   ar
    11    23    24   ar
    12    24    25   ar
    13     3     4   ar
    14     4     5   ar
    15     5     9    1
    16     9    10   ar
    17    10    11   ar
    18    11    12   ar
    19    12    13   ar
    20    13    14   ar
    21     5     6   ar
    22     6     7   ar
    23     7     8    2
    24     7     2   ar
    25    25    20   ar
    26    14     9   ar
    27    15    16    1
@<TRIPOS>MOLECULE
*****
 25 27 0 0 0
SMALL
GASTEIGER

@<TRIPOS>ATOM
      1 C          64.5407   85.3675   14.7301 C.3     1  UNL1        0.1363
      2 N          63.7207   85.8300   13.5624 N.ar    1  UNL1       -0.2669
      3 C          63.6002   87.2950   13.2638 C.ar    1  UNL1        0.2005
      4 N          62.7802   87.7574   12.0960 N.ar    1  UNL1       -0.2150
      5 C          62.0806   86.7549   11.2269 C.ar    1  UNL1        0.0890
      6 C          62.2011   85.2899   11.5255 C.ar    1  UNL1        0.0800
      7 C          63.0211   84.8274   12.6932 C.ar    1  UNL1        0.2645
      8 O          63.1416   83.3623   12.9918 O.2     1  UNL1       -0.2668
      9 C          61.2606   87.2174   10.0591 C.ar    1  UNL1        0.0210
     10 C          60.9923   88.6801    9.8634 C.ar    1  UNL1        0.0222
     11 C          60.1723   89.1426    8.6956 C.ar    1  UNL1        0.0989
     12 N          59.6205   88.1423    7.7236 N.ar    1  UNL1       -0.2423
     13 C          59.8888   86.6795    7.9193 C.ar    1  UNL1        0.0989
     14 C          60.7088   86.2171    9.0870 C.ar    1  UNL1        0.0222
     15 N          64.2998   88.2976   14.1330 N.pl3   1  UNL1       -0.2977
     16 H          65.2835   88.3310   14.1521 H       1  UNL1        0.1500
     17 C          63.5005   89.2492   14.9729 C.3     1  UNL1        0.1596
     18 C          63.9774   90.6577   15.1703 C.2     1  UNL1        0.1928
     19 O          63.4736   91.4644   16.3302 O.2     1  UNL1       -0.2895
     20 C          64.9579   91.2594   14.2077 C.ar    1  UNL1        0.0364
     21 C          64.4998   91.7047   12.8506 C.ar    1  UNL1        0.0029
     22 C          65.4803   92.3064   11.8881 C.ar    1  UNL1        0.0001
     23 C          66.9191   92.4628   12.2827 C.ar    1  UNL1        0.0000
     24 C          67.3772   92.0174   13.6398 C.ar    1  UNL1        0.0001
     25 C          66.3966   91.4157   14.6024 C.ar    1  UNL1        0.0029
@<TRIPOS>BOND
     1     1     2    1
     2     2     3   ar
     3     3    15    1
     4    15    17    1
     5    17    18    1
     6    18    19    2
     7    18    20    1
     8    20    21   ar
     9    21    22   ar
    10    22    23   ar
    11    23    24   ar
    12    24    25   ar
    13     3     4   ar
    14     4     5   ar
    15     5     9    1
    16     9    10   ar
    17    10    11   ar
    18    11    12   ar
    19    12    13   ar
    20    13    14   ar
    21     5     6   ar
    22     6     7   ar
    23     7     8    2
    24     7     2   ar
    25    25    20   ar
    26    14     9   ar
    27    15    16    1
@<TRIPOS>MOLECULE
*****
 25 27 0 0 0
SMALL
GASTEIGER

@<TRIPOS>ATOM
      1 C          60.5363   87.0151    9.5971 C.3     1  UNL1        0.1363
      2 N          61.4166   87.9434   10.3803 N.ar    1  UNL1       -0.2669
      3 C          62.2717   87.4080   11.4903 C.ar    1  UNL1        0.2005
      4 N          63.1520   88.3363   12.2735 N.ar    1  UNL1       -0.2150
      5 C          63.1771   89.8000   11.9467 C.ar    1  UNL1        0.0890
      6 C          62.3220   90.3354   10.8368 C.ar    1  UNL1        0.0800
      7 C          61.4417   89.4072   10.0536 C.ar    1  UNL1        0.2645
      8 O          60.5866   89.9427    8.9436 O.2     1  UNL1       -0.2668
      9 C          64.0574   90.7283   12.7299 C.ar    1  UNL1        0.0210
     10 C          64.2656   90.5038   14.1983 C.ar    1  UNL1        0.0222
     11 C          65.1459   91.4321   14.9815 C.ar    1  UNL1        0.0989
     12 N          65.8179   92.5848   14.2964 N.ar    1  UNL1       -0.2423
     13 C          65.6097   92.8093   12.8280 C.ar    1  UNL1        0.0989
     14 C          64.7294   91.8810   12.0448 C.ar    1  UNL1        0.0222
     15 N          62.2466   85.9442   11.8170 N.pl3   1  UNL1       -0.2977
     16 H          61.6385   85.3416   11.3309 H       1  UNL1        0.1500
     17 C          63.1481   85.3984   12.8845 C.3     1  UNL1        0.1596
     18 C          62.6411   84.3509   13.8310 C.2     1  UNL1        0.1928
     19 O          62.1705   84.7421   15.2005 O.2     1  UNL1       -0.2895
     20 C          62.6049   82.9123   13.4080 C.ar    1  UNL1        0.0364
     21 C          63.0676   82.5222   12.0355 C.ar    1  UNL1        0.0029
     22 C          63.0314   81.0835   11.6125 C.ar    1  UNL1        0.0001
     23 C          62.5324   80.0349   12.5620 C.ar    1  UNL1        0.0000
     24 C          62.0696   80.4250   13.9345 C.ar    1  UNL1        0.0001
     25 C          62.1059   81.8637   14.3575 C.ar    1  UNL1        0.0029
@<TRIPOS>BOND
     1     1     2    1
     2     2     3   ar
     3     3    15    1
     4    15    17    1
     5    17    18    1
     6    18    19    2
     7    18    20    1
     8    20    21   ar
     9    21    22   ar
    10    22    23   ar
    11    23    24   ar
    12    24    25   ar
    13     3     4   ar
    14     4     5   ar
    15     5     9    1
    16     9    10   ar
    17    10    11   ar
    18    11    12   ar
    19    12    13   ar
    20    13    14   ar
    21     5     6   ar
    22     6     7   ar
    23     7     8    2
    24     7     2   ar
    25    25    20   ar
    26    14     9   ar
    27    15    16    1
@<TRIPOS>MOLECULE
*****
 25 27 0 0 0
SMALL
GASTEIGER

@<TRIPOS>ATOM
      1 C          59.9593   86.3704    8.2909 C.3     1  UNL1        0.1363
      2 N          60.7533   87.2981    9.1620 N.ar    1  UNL1       -0.2669
      3 C          61.6908   86.7412   10.1921 C.ar    1  UNL1        0.2005
      4 N          62.4848   87.6689   11.0632 N.ar    1  UNL1       -0.2150
      5 C          62.3414   89.1536   10.9043 C.ar    1  UNL1        0.0890
      6 C          61.4039   89.7104    9.8742 C.ar    1  UNL1        0.0800
      7 C          60.6099   88.7827    9.0031 C.ar    1  UNL1        0.2645
      8 O          59.6724   89.3397    7.9730 O.2     1  UNL1       -0.2668
      9 C          63.1354   90.0813   11.7754 C.ar    1  UNL1        0.0210
     10 C          63.8807   91.2303   11.1638 C.ar    1  UNL1        0.0222
     11 C          64.6747   92.1581   12.0349 C.ar    1  UNL1        0.0989
     12 N          64.7234   91.9367   13.5176 N.ar    1  UNL1       -0.2423
     13 C          63.9781   90.7877   14.1293 C.ar    1  UNL1        0.0989
     14 C          63.1841   89.8599   13.2581 C.ar    1  UNL1        0.0222
     15 N          61.8342   85.2565   10.3510 N.pl3   1  UNL1       -0.2977
     16 H          61.0987   84.7297   10.7392 H       1  UNL1        0.1500
     17 C          63.0983   84.5746    9.9186 C.3     1  UNL1        0.1596
     18 C          63.7117   83.5134   10.7833 C.2     1  UNL1        0.1928
     19 O          64.6906   82.5404   10.1959 O.2     1  UNL1       -0.2895
     20 C          63.3462   83.4253   12.2354 C.ar    1  UNL1        0.0364
     21 C          62.5490   82.2586   12.7387 C.ar    1  UNL1        0.0029
     22 C          62.1835   82.1705   14.1908 C.ar    1  UNL1        0.0001
     23 C          62.6152   83.2491   15.1397 C.ar    1  UNL1        0.0000
     24 C          63.4124   84.4158   14.6364 C.ar    1  UNL1        0.0001
     25 C          63.7779   84.5039   13.1842 C.ar    1  UNL1        0.0029
@<TRIPOS>BOND
     1     1     2    1
     2     2     3   ar
     3     3    15    1
     4    15    17    1
     5    17    18    1
     6    18    19    2
     7    18    20    1
     8    20    21   ar
     9    21    22   ar
    10    22    23   ar
    11    23    24   ar
    12    24    25   ar
    13     3     4   ar
    14     4     5   ar
    15     5     9    1
    16     9    10   ar
    17    10    11   ar
    18    11    12   ar
    19    12    13   ar
    20    13    14   ar
    21     5     6   ar
    22     6     7   ar
    23     7     8    2
    24     7     2   ar
    25    25    20   ar
    26    14     9   ar
    27    15    16    1
@<TRIPOS>MOLECULE
*****
 25 27 0 0 0
SMALL
GASTEIGER

@<TRIPOS>ATOM
      1 C          59.8171   88.4142    8.4510 C.3     1  UNL1        0.1363
      2 N          60.5519   87.4633    9.3488 N.ar    1  UNL1       -0.2669
      3 C          60.6765   87.7598   10.8139 C.ar    1  UNL1        0.2005
      4 N          61.4113   86.8090   11.7116 N.ar    1  UNL1       -0.2150
      5 C          62.0214   85.5617   11.1443 C.ar    1  UNL1        0.0890
      6 C          61.8968   85.2652    9.6792 C.ar    1  UNL1        0.0800
      7 C          61.1620   86.2160    8.7815 C.ar    1  UNL1        0.2645
      8 O          61.0374   85.9195    7.3163 O.2     1  UNL1       -0.2668
      9 C          62.7562   84.6108   12.0421 C.ar    1  UNL1        0.0210
     10 C          63.4123   85.1157   13.2929 C.ar    1  UNL1        0.0222
     11 C          64.1471   84.1649   14.1907 C.ar    1  UNL1        0.0989
     12 N          64.2258   82.7091   13.8377 N.ar    1  UNL1       -0.2423
     13 C          63.5697   82.2043   12.5868 C.ar    1  UNL1        0.0989
     14 C          62.8349   83.1551   11.6891 C.ar    1  UNL1        0.0222
     15 N          60.0664   89.0072   11.3812 N.pl3   1  UNL1       -0.2977
     16 H          59.1561   88.9837   11.7555 H       1  UNL1        0.1500
     17 C          60.8431   90.2904   11.3784 C.3     1  UNL1        0.1596
     18 C          62.3100   90.2785   11.0649 C.2     1  UNL1        0.1928
     19 O          62.7721   90.1573    9.6430 O.2     1  UNL1       -0.2895
     20 C          63.3147   90.3876   12.1733 C.ar    1  UNL1        0.0364
     21 C          63.4052   89.3097   13.2124 C.ar    1  UNL1        0.0029
     22 C          64.4099   89.4189   14.3208 C.ar    1  UNL1        0.0001
     23 C          65.3242   90.6061   14.3901 C.ar    1  UNL1        0.0000
     24 C          65.2337   91.6840   13.3510 C.ar    1  UNL1        0.0001
     25 C          64.2289   91.5748   12.2425 C.ar    1  UNL1        0.0029
@<TRIPOS>BOND
     1     1     2    1
     2     2     3   ar
     3     3    15    1
     4    15    17    1
     5    17    18    1
     6    18    19    2
     7    18    20    1
     8    20    21   ar
     9    21    22   ar
    10    22    23   ar
    11    23    24   ar
    12    24    25   ar
    13     3     4   ar
    14     4     5   ar
    15     5     9    1
    16     9    10   ar
    17    10    11   ar
    18    11    12   ar
    19    12    13   ar
    20    13    14   ar
    21     5     6   ar
    22     6     7   ar
    23     7     8    2
    24     7     2   ar
    25    25    20   ar
    26    14     9   ar
    27    15    16    1
@<TRIPOS>MOLECULE
*****
 25 27 0 0 0
SMALL
GASTEIGER

@<TRIPOS>ATOM
      1 C          63.1477   83.9026   16.4693 C.3     1  UNL1        0.1363
      2 N          63.4186   85.2662   15.9059 N.ar    1  UNL1       -0.2669
      3 C          64.0959   85.4067   14.5750 C.ar    1  UNL1        0.2005
      4 N          64.3668   86.7703   14.0116 N.ar    1  UNL1       -0.2150
      5 C          63.9604   87.9932   14.7791 C.ar    1  UNL1        0.0890
      6 C          63.2830   87.8526   16.1101 C.ar    1  UNL1        0.0800
      7 C          63.0121   86.4891   16.6735 C.ar    1  UNL1        0.2645
      8 O          62.3347   86.3486   18.0045 O.2     1  UNL1       -0.2668
      9 C          64.2313   89.3567   14.2157 C.ar    1  UNL1        0.0210
     10 C          63.5506   89.7953   12.9531 C.ar    1  UNL1        0.0222
     11 C          63.8215   91.1589   12.3897 C.ar    1  UNL1        0.0989
     12 N          64.7730   92.0838   13.0890 N.ar    1  UNL1       -0.2423
     13 C          65.4537   91.6452   14.3516 C.ar    1  UNL1        0.0989
     14 C          65.1828   90.2817   14.9150 C.ar    1  UNL1        0.0222
     15 N          64.5024   84.1837   13.8074 N.pl3   1  UNL1       -0.2977
     16 H          65.4045   83.8070   13.9235 H       1  UNL1        0.1500
     17 C          63.5345   83.5349   12.8630 C.3     1  UNL1        0.1596
     18 C          63.7543   83.6287   11.3821 C.2     1  UNL1        0.1928
     19 O          64.7646   82.7423   10.7161 O.2     1  UNL1       -0.2895
     20 C          62.9638   84.6090   10.5672 C.ar    1  UNL1        0.0364
     21 C          61.9306   85.4728   11.2279 C.ar    1  UNL1        0.0029
     22 C          61.1401   86.4531   10.4130 C.ar    1  UNL1        0.0001
     23 C          61.3828   86.5696    8.9373 C.ar    1  UNL1        0.0000
     24 C          62.4159   85.7059    8.2766 C.ar    1  UNL1        0.0001
     25 C          63.2064   84.7256    9.0915 C.ar    1  UNL1        0.0029
@<TRIPOS>BOND
     1     1     2    1
     2     2     3   ar
     3     3    15    1
     4    15    17    1
     5    17    18    1
     6    18    19    2
     7    18    20    1
     8    20    21   ar
     9    21    22   ar
    10    22    23   ar
    11    23    24   ar
    12    24    25   ar
    13     3     4   ar
    14     4     5   ar
    15     5     9    1
    16     9    10   ar
    17    10    11   ar
    18    11    12   ar
    19    12    13   ar
    20    13    14   ar
    21     5     6   ar
    22     6     7   ar
    23     7     8    2
    24     7     2   ar
    25    25    20   ar
    26    14     9   ar
    27    15    16    1
