@<TRIPOS>MOLECULE
*****
 33 38 0 0 0
SMALL
GASTEIGER

@<TRIPOS>ATOM
      1 C          62.6017   84.3196   12.0421 C.ar    1  UNL1        0.0436
      2 C          62.4147   82.8402   11.8805 C.ar    1  UNL1        0.0142
      3 C          63.0512   81.8931   12.8541 C.ar    1  UNL1        0.0010
      4 C          63.8748   82.4254   13.9891 C.ar    1  UNL1       -0.0032
      5 C          64.0618   83.9049   14.1506 C.ar    1  UNL1       -0.0091
      6 C          63.4253   84.8520   13.1771 C.ar    1  UNL1       -0.0101
      7 C          63.6123   86.3316   13.3386 C.3     1  UNL1        0.0444
      8 C          64.4359   86.8639   14.4736 C.3     1  UNL1        0.0749
      9 N          65.0724   85.9167   15.4472 N.3     1  UNL1       -0.2934
     10 C          64.8854   84.4373   15.2857 C.3     1  UNL1        0.0954
     11 H          64.7148   86.1596   16.3710 H       1  UNL1        0.1236
     12 C          59.3698   89.1289    7.0987 C.3     1  UNL1        0.0896
     13 N          60.0063   88.1818    8.0722 N.3     1  UNL1       -0.2714
     14 C          60.7938   86.9543    7.7215 C.3     1  UNL1        0.0739
     15 C          61.2412   86.3097    8.9999 C.3     1  UNL1        0.0387
     16 C          62.0044   85.1527    9.5734 C.3     1  UNL1        0.0922
     17 N          61.9652   85.2668   11.0685 N.pl3   1  UNL1       -0.3076
     18 C          61.1777   86.4944   11.4192 C.3     1  UNL1        0.0922
     19 C          60.7303   87.1389   10.1408 C.3     1  UNL1        0.0387
     20 C          59.9671   88.2959    9.5674 C.3     1  UNL1        0.0739
     21 C          64.6230   88.3434   14.6352 C.3     1  UNL1        0.0886
     22 N          63.5240   89.2856   14.2423 N.3     1  UNL1       -0.2667
     23 C          62.3386   89.4723   15.1424 C.3     1  UNL1        0.0899
     24 C          63.6103   90.0412   12.9494 C.3     1  UNL1        0.0978
     25 C          62.8140   89.5885   11.7615 C.3     1  UNL1        0.0224
     26 C          62.9003   90.3441   10.4686 C.3     1  UNL1        0.0065
     27 C          63.7829   91.5523   10.3635 C.3     1  UNL1        0.0277
     28 C          64.5792   92.0050   11.5513 C.ar    1  UNL1       -0.0073
     29 C          65.4619   93.2133   11.4462 C.ar    1  UNL1       -0.0015
     30 C          66.2582   93.6660   12.6341 C.ar    1  UNL1        0.0203
     31 C          66.1719   92.9104   13.9270 C.ar    1  UNL1        0.0985
     32 N          65.2892   91.7022   14.0321 N.ar    1  UNL1       -0.2471
     33 C          64.4929   91.2495   12.8443 C.ar    1  UNL1        0.0695
@<TRIPOS>BOND
     1    12    13    1
     2    13    14    1
     3    15    14    1
     4    15    16    1
     5    16    17    1
     6    17     1    1
     7     1     2   ar
     8     2     3   ar
     9     3     4   ar
    10     4     5   ar
    11     5     6   ar
    12     6     7    1
    13     7     8    1
    14     8    21    1
    15    21    22    1
    16    22    23    1
    17    24    22    1
    18    24    25    1
    19    25    26    1
    20    26    27    1
    21    27    28    1
    22    28    29   ar
    23    29    30   ar
    24    30    31   ar
    25    31    32   ar
    26    32    33   ar
    27     8     9    1
    28     9    10    1
    29    17    18    1
    30    19    18    1
    31    19    20    1
    32    20    13    1
    33    19    15    1
    34     6     1   ar
    35    33    24    1
    36    10     5    1
    37    33    28   ar
    38     9    11    1
@<TRIPOS>MOLECULE
*****
 33 38 0 0 0
SMALL
GASTEIGER

@<TRIPOS>ATOM
      1 C          65.4481   91.5727   14.4631 C.ar    1  UNL1        0.0436
      2 C          66.3917   92.3424   15.3389 C.ar    1  UNL1        0.0142
      3 C          67.0463   93.5892   14.8223 C.ar    1  UNL1        0.0010
      4 C          66.7573   94.0663   13.4298 C.ar    1  UNL1       -0.0032
      5 C          65.8137   93.2965   12.5540 C.ar    1  UNL1       -0.0091
      6 C          65.1591   92.0497   13.0707 C.ar    1  UNL1       -0.0101
      7 C          64.2154   91.2799   12.1949 C.3     1  UNL1        0.0444
      8 C          63.9264   91.7569   10.8024 C.3     1  UNL1        0.0749
      9 N          64.5811   93.0038   10.2858 N.3     1  UNL1       -0.2934
     10 C          65.5247   93.7736   11.1616 C.3     1  UNL1        0.0954
     11 H          63.8309   93.6445   10.0266 H       1  UNL1        0.1236
     12 C          62.1241   85.2418   17.0865 C.3     1  UNL1        0.0896
     13 N          62.7787   86.4885   16.5698 N.3     1  UNL1       -0.2714
     14 C          62.5576   87.8793   17.0863 C.3     1  UNL1        0.0739
     15 C          63.4116   88.8138   16.2817 C.3     1  UNL1        0.0387
     16 C          63.8028   90.2509   16.1036 C.3     1  UNL1        0.0922
     17 N          64.7935   90.3258   14.9798 N.pl3   1  UNL1       -0.3076
     18 C          65.0146   88.9350   14.4633 C.3     1  UNL1        0.0922
     19 C          64.1606   88.0005   15.2679 C.3     1  UNL1        0.0387
     20 C          63.7694   86.5634   15.4460 C.3     1  UNL1        0.0739
     21 C          62.9828   90.9872    9.9266 C.3     1  UNL1        0.0886
     22 N          61.8218   90.2575   10.5344 N.3     1  UNL1       -0.2667
     23 C          60.7380   91.0230   11.2342 C.3     1  UNL1        0.0899
     24 C          61.7443   88.7623   10.4424 C.3     1  UNL1        0.0978
     25 C          62.5233   87.9106   11.4005 C.3     1  UNL1        0.0224
     26 C          62.4459   86.4154   11.3085 C.3     1  UNL1        0.0065
     27 C          61.5895   85.7720   10.2585 C.3     1  UNL1        0.0277
     28 C          60.8106   86.6236    9.3004 C.ar    1  UNL1       -0.0073
     29 C          59.9542   85.9801    8.2504 C.ar    1  UNL1       -0.0015
     30 C          59.1753   86.8319    7.2923 C.ar    1  UNL1        0.0203
     31 C          59.2527   88.3270    7.3843 C.ar    1  UNL1        0.0985
     32 N          60.1090   88.9705    8.4343 N.ar    1  UNL1       -0.2471
     33 C          60.8880   88.1188    9.3924 C.ar    1  UNL1        0.0695
@<TRIPOS>BOND
     1    12    13    1
     2    13    14    1
     3    15    14    1
     4    15    16    1
     5    16    17    1
     6    17     1    1
     7     1     2   ar
     8     2     3   ar
     9     3     4   ar
    10     4     5   ar
    11     5     6   ar
    12     6     7    1
    13     7     8    1
    14     8    21    1
    15    21    22    1
    16    22    23    1
    17    24    22    1
    18    24    25    1
    19    25    26    1
    20    26    27    1
    21    27    28    1
    22    28    29   ar
    23    29    30   ar
    24    30    31   ar
    25    31    32   ar
    26    32    33   ar
    27     8     9    1
    28     9    10    1
    29    17    18    1
    30    19    18    1
    31    19    20    1
    32    20    13    1
    33    19    15    1
    34     6     1   ar
    35    33    24    1
    36    10     5    1
    37    33    28   ar
    38     9    11    1
@<TRIPOS>MOLECULE
*****
 33 38 0 0 0
SMALL
GASTEIGER

@<TRIPOS>ATOM
      1 C          62.6467   90.1121   11.4597 C.ar    1  UNL1        0.0436
      2 C          61.8037   90.9027   10.5035 C.ar    1  UNL1        0.0142
      3 C          60.7486   90.2150    9.6888 C.ar    1  UNL1        0.0010
      4 C          60.5364   88.7369    9.8303 C.ar    1  UNL1       -0.0032
      5 C          61.3793   87.9463   10.7865 C.ar    1  UNL1       -0.0091
      6 C          62.4345   88.6340   11.6012 C.ar    1  UNL1       -0.0101
      7 C          63.2775   87.8434   12.5575 C.3     1  UNL1        0.0444
      8 C          63.0653   86.3653   12.6990 C.3     1  UNL1        0.0749
      9 N          62.0101   85.6776   11.8843 N.3     1  UNL1       -0.2934
     10 C          61.1671   86.4682   10.9280 C.3     1  UNL1        0.0954
     11 H          61.3705   85.2350   12.5441 H       1  UNL1        0.1236
     12 C          68.0045   93.6034   15.5970 C.3     1  UNL1        0.0896
     13 N          66.9493   92.9158   14.7822 N.3     1  UNL1       -0.2714
     14 C          65.9496   91.9211   15.2931 C.3     1  UNL1        0.0739
     15 C          65.0911   91.4927   14.1401 C.3     1  UNL1        0.0387
     16 C          63.9426   90.6133   13.7433 C.3     1  UNL1        0.0922
     17 N          63.7019   90.7997   12.2745 N.pl3   1  UNL1       -0.3076
     18 C          64.7016   91.7945   11.7636 C.3     1  UNL1        0.0922
     19 C          65.5601   92.2228   12.9165 C.3     1  UNL1        0.0387
     20 C          66.7086   93.1023   13.3134 C.3     1  UNL1        0.0739
     21 C          63.9083   85.5747   13.6553 C.3     1  UNL1        0.0886
     22 N          63.2648   84.5854   14.5811 N.3     1  UNL1       -0.2667
     23 C          63.0823   84.9238   16.0310 C.3     1  UNL1        0.0899
     24 C          62.8038   83.2577   14.0570 C.3     1  UNL1        0.0978
     25 C          61.8982   82.3970   14.8873 C.3     1  UNL1        0.0224
     26 C          61.4373   81.0693   14.3632 C.3     1  UNL1        0.0065
     27 C          61.8819   80.6022   13.0089 C.3     1  UNL1        0.0277
     28 C          62.7875   81.4627   12.1787 C.ar    1  UNL1       -0.0073
     29 C          63.2321   80.9956   10.8244 C.ar    1  UNL1       -0.0015
     30 C          64.1377   81.8563    9.9941 C.ar    1  UNL1        0.0203
     31 C          64.5986   83.1840   10.5182 C.ar    1  UNL1        0.0985
     32 N          64.1540   83.6511   11.8725 N.ar    1  UNL1       -0.2471
     33 C          63.2485   82.7905   12.7027 C.ar    1  UNL1        0.0695
@<TRIPOS>BOND
     1    12    13    1
     2    13    14    1
     3    15    14    1
     4    15    16    1
     5    16    17    1
     6    17     1    1
     7     1     2   ar
     8     2     3   ar
     9     3     4   ar
    10     4     5   ar
    11     5     6   ar
    12     6     7    1
    13     7     8    1
    14     8    21    1
    15    21    22    1
    16    22    23    1
    17    24    22    1
    18    24    25    1
    19    25    26    1
    20    26    27    1
    21    27    28    1
    22    28    29   ar
    23    29    30   ar
    24    30    31   ar
    25    31    32   ar
    26    32    33   ar
    27     8     9    1
    28     9    10    1
    29    17    18    1
    30    19    18    1
    31    19    20    1
    32    20    13    1
    33    19    15    1
    34     6     1   ar
    35    33    24    1
    36    10     5    1
    37    33    28   ar
    38     9    11    1
@<TRIPOS>MOLECULE
*****
 33 38 0 0 0
SMALL
GASTEIGER

@<TRIPOS>ATOM
      1 C          61.1212   86.6193    9.4391 C.ar    1  UNL1        0.0436
      2 C          60.4953   86.2812    8.1186 C.ar    1  UNL1        0.0142
      3 C          59.7324   87.3269    7.3606 C.ar    1  UNL1        0.0010
      4 C          59.5954   88.7106    7.9232 C.ar    1  UNL1       -0.0032
      5 C          60.2213   89.0487    9.2437 C.ar    1  UNL1       -0.0091
      6 C          60.9842   88.0030   10.0017 C.ar    1  UNL1       -0.0101
      7 C          61.6102   88.3411   11.3223 C.3     1  UNL1        0.0444
      8 C          61.4732   89.7248   11.8849 C.3     1  UNL1        0.0749
      9 N          60.7103   90.7705   11.1269 N.3     1  UNL1       -0.2934
     10 C          60.0843   90.4324    9.8063 C.3     1  UNL1        0.0954
     11 H          61.3562   91.5416   10.9577 H       1  UNL1        0.1236
     12 C          64.9951   81.3099   13.2882 C.3     1  UNL1        0.0896
     13 N          64.2322   82.3555   12.5302 N.3     1  UNL1       -0.2714
     14 C          63.2132   83.2939   13.1055 C.3     1  UNL1        0.0739
     15 C          62.7056   84.1647   11.9946 C.3     1  UNL1        0.0387
     16 C          61.7621   85.2828   11.6636 C.3     1  UNL1        0.0922
     17 N          61.8842   85.5736   10.1971 N.pl3   1  UNL1       -0.3076
     18 C          62.9032   84.6352    9.6218 C.3     1  UNL1        0.0922
     19 C          63.4108   83.7645   10.7327 C.3     1  UNL1        0.0387
     20 C          64.3543   82.6463   11.0637 C.3     1  UNL1        0.0739
     21 C          62.0991   90.0629   13.2054 C.3     1  UNL1        0.0886
     22 N          63.5914   90.0389   13.3562 N.3     1  UNL1       -0.2667
     23 C          64.2559   88.8915   14.0578 C.3     1  UNL1        0.0899
     24 C          64.4190   91.1621   12.8055 C.3     1  UNL1        0.0978
     25 C          64.3300   91.5159   11.3505 C.3     1  UNL1        0.0224
     26 C          65.1577   92.6391   10.7998 C.3     1  UNL1        0.0065
     27 C          66.0744   93.4085   11.7040 C.3     1  UNL1        0.0277
     28 C          66.1634   93.0548   13.1589 C.ar    1  UNL1       -0.0073
     29 C          67.0801   93.8242   14.0631 C.ar    1  UNL1       -0.0015
     30 C          67.1691   93.4704   15.5182 C.ar    1  UNL1        0.0203
     31 C          66.3415   92.3472   16.0689 C.ar    1  UNL1        0.0985
     32 N          65.4248   91.5778   15.1647 N.ar    1  UNL1       -0.2471
     33 C          65.3357   91.9315   13.7097 C.ar    1  UNL1        0.0695
@<TRIPOS>BOND
     1    12    13    1
     2    13    14    1
     3    15    14    1
     4    15    16    1
     5    16    17    1
     6    17     1    1
     7     1     2   ar
     8     2     3   ar
     9     3     4   ar
    10     4     5   ar
    11     5     6   ar
    12     6     7    1
    13     7     8    1
    14     8    21    1
    15    21    22    1
    16    22    23    1
    17    24    22    1
    18    24    25    1
    19    25    26    1
    20    26    27    1
    21    27    28    1
    22    28    29   ar
    23    29    30   ar
    24    30    31   ar
    25    31    32   ar
    26    32    33   ar
    27     8     9    1
    28     9    10    1
    29    17    18    1
    30    19    18    1
    31    19    20    1
    32    20    13    1
    33    19    15    1
    34     6     1   ar
    35    33    24    1
    36    10     5    1
    37    33    28   ar
    38     9    11    1
@<TRIPOS>MOLECULE
*****
 33 38 0 0 0
SMALL
GASTEIGER

@<TRIPOS>ATOM
      1 C          63.4974   84.4809   12.0978 C.ar    1  UNL1        0.0436
      2 C          64.3598   83.2869   11.8142 C.ar    1  UNL1        0.0142
      3 C          64.5278   82.8007   10.4052 C.ar    1  UNL1        0.0010
      4 C          63.8332   83.5085    9.2798 C.ar    1  UNL1       -0.0032
      5 C          62.9707   84.7025    9.5634 C.ar    1  UNL1       -0.0091
      6 C          62.8028   85.1887   10.9724 C.ar    1  UNL1       -0.0101
      7 C          61.9403   86.3827   11.2560 C.3     1  UNL1        0.0444
      8 C          61.2457   87.0906   10.1306 C.3     1  UNL1        0.0749
      9 N          61.4137   86.6043    8.7215 N.3     1  UNL1       -0.2934
     10 C          62.2762   85.4104    8.4379 C.3     1  UNL1        0.0954
     11 H          61.8012   87.3813    8.1862 H       1  UNL1        0.1236
     12 C          62.6446   86.9498   19.2524 C.3     1  UNL1        0.0896
     13 N          62.8126   86.4636   17.8434 N.3     1  UNL1       -0.2714
     14 C          63.6709   87.0966   16.7887 C.3     1  UNL1        0.0739
     15 C          63.5405   86.2832   15.5352 C.3     1  UNL1        0.0387
     16 C          63.9903   86.1718   14.1086 C.3     1  UNL1        0.0922
     17 N          63.3294   84.9671   13.5069 N.pl3   1  UNL1       -0.3076
     18 C          62.4711   84.3340   14.5616 C.3     1  UNL1        0.0922
     19 C          62.6015   85.1474   15.8152 C.3     1  UNL1        0.0387
     20 C          62.1517   85.2589   17.2418 C.3     1  UNL1        0.0739
     21 C          60.3833   88.2845   10.4142 C.3     1  UNL1        0.0886
     22 N          60.7591   89.2382   11.5094 N.3     1  UNL1       -0.2667
     23 C          59.9076   89.3402   12.7401 C.3     1  UNL1        0.0899
     24 C          61.9865   90.0897   11.3739 C.3     1  UNL1        0.0978
     25 C          62.3265   90.7104   10.0512 C.3     1  UNL1        0.0224
     26 C          63.5538   91.5619    9.9157 C.3     1  UNL1        0.0065
     27 C          64.4412   91.7929   11.1028 C.3     1  UNL1        0.0277
     28 C          64.1013   91.1723   12.4254 C.ar    1  UNL1       -0.0073
     29 C          64.9887   91.4033   13.6125 C.ar    1  UNL1       -0.0015
     30 C          64.6487   90.7826   14.9351 C.ar    1  UNL1        0.0203
     31 C          63.4214   89.9311   15.0706 C.ar    1  UNL1        0.0985
     32 N          62.5340   89.7001   13.8835 N.ar    1  UNL1       -0.2471
     33 C          62.8739   90.3207   12.5609 C.ar    1  UNL1        0.0695
@<TRIPOS>BOND
     1    12    13    1
     2    13    14    1
     3    15    14    1
     4    15    16    1
     5    16    17    1
     6    17     1    1
     7     1     2   ar
     8     2     3   ar
     9     3     4   ar
    10     4     5   ar
    11     5     6   ar
    12     6     7    1
    13     7     8    1
    14     8    21    1
    15    21    22    1
    16    22    23    1
    17    24    22    1
    18    24    25    1
    19    25    26    1
    20    26    27    1
    21    27    28    1
    22    28    29   ar
    23    29    30   ar
    24    30    31   ar
    25    31    32   ar
    26    32    33   ar
    27     8     9    1
    28     9    10    1
    29    17    18    1
    30    19    18    1
    31    19    20    1
    32    20    13    1
    33    19    15    1
    34     6     1   ar
    35    33    24    1
    36    10     5    1
    37    33    28   ar
    38     9    11    1
@<TRIPOS>MOLECULE
*****
 33 38 0 0 0
SMALL
GASTEIGER

@<TRIPOS>ATOM
      1 C          61.2895   86.6721    9.6955 C.ar    1  UNL1        0.0436
      2 C          60.6996   86.3696    8.3500 C.ar    1  UNL1        0.0142
      3 C          60.0194   87.4541    7.5684 C.ar    1  UNL1        0.0010
      4 C          59.9290   88.8412    8.1324 C.ar    1  UNL1       -0.0032
      5 C          60.5188   89.1436    9.4779 C.ar    1  UNL1       -0.0091
      6 C          61.1991   88.0591   10.2595 C.ar    1  UNL1       -0.0101
      7 C          61.7890   88.3615   11.6051 C.3     1  UNL1        0.0444
      8 C          61.6986   89.7485   12.1690 C.3     1  UNL1        0.0749
      9 N          61.0183   90.8331   11.3874 N.3     1  UNL1       -0.2934
     10 C          60.4284   90.5306   10.0418 C.3     1  UNL1        0.0954
     11 H          61.7076   91.5718   11.2474 H       1  UNL1        0.1236
     12 C          64.7439   81.1650   13.6644 C.3     1  UNL1        0.0896
     13 N          64.0636   82.2496   12.8828 N.3     1  UNL1       -0.2714
     14 C          64.2223   82.5101   11.4141 C.3     1  UNL1        0.0739
     15 C          63.3619   83.6855   11.0562 C.3     1  UNL1        0.0387
     16 C          62.9283   84.5730    9.9274 C.3     1  UNL1        0.0922
     17 N          61.9698   85.5875   10.4772 N.pl3   1  UNL1       -0.3076
     18 C          61.8111   85.3270   11.9459 C.3     1  UNL1        0.0922
     19 C          62.6715   84.1515   12.3038 C.3     1  UNL1        0.0387
     20 C          63.1052   83.2640   13.4326 C.3     1  UNL1        0.0739
     21 C          62.2885   90.0510   13.5146 C.3     1  UNL1        0.0886
     22 N          63.7488   89.8153   13.7635 N.3     1  UNL1       -0.2667
     23 C          64.2859   88.4154   13.8065 C.3     1  UNL1        0.0899
     24 C          64.6720   90.9795   13.9693 C.3     1  UNL1        0.0978
     25 C          65.2570   91.2422   15.3254 C.3     1  UNL1        0.0224
     26 C          66.1802   92.4063   15.5312 C.3     1  UNL1        0.0065
     27 C          66.5184   93.3078   14.3810 C.3     1  UNL1        0.0277
     28 C          65.9335   93.0452   13.0250 C.ar    1  UNL1       -0.0073
     29 C          66.2717   93.9467   11.8749 C.ar    1  UNL1       -0.0015
     30 C          65.6867   93.6840   10.5188 C.ar    1  UNL1        0.0203
     31 C          64.7635   92.5198   10.3130 C.ar    1  UNL1        0.0985
     32 N          64.4253   91.6183   11.4631 N.ar    1  UNL1       -0.2471
     33 C          65.0102   91.8810   12.8191 C.ar    1  UNL1        0.0695
@<TRIPOS>BOND
     1    12    13    1
     2    13    14    1
     3    15    14    1
     4    15    16    1
     5    16    17    1
     6    17     1    1
     7     1     2   ar
     8     2     3   ar
     9     3     4   ar
    10     4     5   ar
    11     5     6   ar
    12     6     7    1
    13     7     8    1
    14     8    21    1
    15    21    22    1
    16    22    23    1
    17    24    22    1
    18    24    25    1
    19    25    26    1
    20    26    27    1
    21    27    28    1
    22    28    29   ar
    23    29    30   ar
    24    30    31   ar
    25    31    32   ar
    26    32    33   ar
    27     8     9    1
    28     9    10    1
    29    17    18    1
    30    19    18    1
    31    19    20    1
    32    20    13    1
    33    19    15    1
    34     6     1   ar
    35    33    24    1
    36    10     5    1
    37    33    28   ar
    38     9    11    1
@<TRIPOS>MOLECULE
*****
 33 38 0 0 0
SMALL
GASTEIGER

@<TRIPOS>ATOM
      1 C          62.5609   85.8326   11.4822 C.ar    1  UNL1        0.0436
      2 C          62.7367   84.3490   11.3485 C.ar    1  UNL1        0.0142
      3 C          63.5086   83.5888   12.3859 C.ar    1  UNL1        0.0010
      4 C          64.1048   84.3122   13.5569 C.ar    1  UNL1       -0.0032
      5 C          63.9290   85.7959   13.6906 C.ar    1  UNL1       -0.0091
      6 C          63.1570   86.5561   12.6532 C.ar    1  UNL1       -0.0101
      7 C          62.9812   88.0398   12.7869 C.3     1  UNL1        0.0444
      8 C          63.5773   88.7632   13.9579 C.3     1  UNL1        0.0749
      9 N          64.3493   88.0029   14.9952 N.3     1  UNL1       -0.2934
     10 C          64.5251   86.5193   14.8616 C.3     1  UNL1        0.0954
     11 H          63.8822   88.1648   15.8874 H       1  UNL1        0.1236
     12 C          58.6411   89.6932    6.2150 C.3     1  UNL1        0.0896
     13 N          59.4130   88.9329    7.2523 N.3     1  UNL1       -0.2714
     14 C          60.2392   89.5321    8.3516 C.3     1  UNL1        0.0739
     15 C          60.8311   88.4095    9.1511 C.3     1  UNL1        0.0387
     16 C          61.7075   88.0859   10.3247 C.3     1  UNL1        0.0922
     17 N          61.7889   86.5929   10.4448 N.pl3   1  UNL1       -0.3076
     18 C          60.9627   85.9937    9.3455 C.3     1  UNL1        0.0922
     19 C          60.3708   87.1164    8.5460 C.3     1  UNL1        0.0387
     20 C          59.4944   87.4399    7.3725 C.3     1  UNL1        0.0739
     21 C          63.4015   90.2468   14.0915 C.3     1  UNL1        0.0886
     22 N          64.3198   91.0340   14.9787 N.3     1  UNL1       -0.2667
     23 C          63.8992   91.3780   16.3769 C.3     1  UNL1        0.0899
     24 C          65.6587   91.4770   14.4678 C.3     1  UNL1        0.0978
     25 C          66.8487   91.4736   15.3812 C.3     1  UNL1        0.0224
     26 C          68.1875   91.9166   14.8703 C.3     1  UNL1        0.0065
     27 C          68.3366   92.3632   13.4461 C.3     1  UNL1        0.0277
     28 C          67.1467   92.3667   12.5328 C.ar    1  UNL1       -0.0073
     29 C          67.2957   92.8133   11.1086 C.ar    1  UNL1       -0.0015
     30 C          66.1058   92.8168   10.1952 C.ar    1  UNL1        0.0203
     31 C          64.7669   92.3737   10.7061 C.ar    1  UNL1        0.0985
     32 N          64.6179   91.9271   12.1303 N.ar    1  UNL1       -0.2471
     33 C          65.8077   91.9236   13.0436 C.ar    1  UNL1        0.0695
@<TRIPOS>BOND
     1    12    13    1
     2    13    14    1
     3    15    14    1
     4    15    16    1
     5    16    17    1
     6    17     1    1
     7     1     2   ar
     8     2     3   ar
     9     3     4   ar
    10     4     5   ar
    11     5     6   ar
    12     6     7    1
    13     7     8    1
    14     8    21    1
    15    21    22    1
    16    22    23    1
    17    24    22    1
    18    24    25    1
    19    25    26    1
    20    26    27    1
    21    27    28    1
    22    28    29   ar
    23    29    30   ar
    24    30    31   ar
    25    31    32   ar
    26    32    33   ar
    27     8     9    1
    28     9    10    1
    29    17    18    1
    30    19    18    1
    31    19    20    1
    32    20    13    1
    33    19    15    1
    34     6     1   ar
    35    33    24    1
    36    10     5    1
    37    33    28   ar
    38     9    11    1
@<TRIPOS>MOLECULE
*****
 33 38 0 0 0
SMALL
GASTEIGER

@<TRIPOS>ATOM
      1 C          62.7287   87.2068   12.1745 C.ar    1  UNL1        0.0436
      2 C          62.6756   85.7773   12.6258 C.ar    1  UNL1        0.0142
      3 C          63.4584   85.3410   13.8286 C.ar    1  UNL1        0.0010
      4 C          64.2944   86.3342   14.5801 C.ar    1  UNL1       -0.0032
      5 C          64.3475   87.7637   14.1287 C.ar    1  UNL1       -0.0091
      6 C          63.5647   88.2000   12.9259 C.ar    1  UNL1       -0.0101
      7 C          63.6178   89.6295   12.4745 C.3     1  UNL1        0.0444
      8 C          64.4537   90.6227   13.2260 C.3     1  UNL1        0.0749
      9 N          65.2366   90.1864   14.4288 N.3     1  UNL1       -0.2934
     10 C          65.1835   88.7569   14.8802 C.3     1  UNL1        0.0954
     11 H          64.9141   90.7546   15.2121 H       1  UNL1        0.1236
     12 C          58.7536   89.4224    6.0670 C.3     1  UNL1        0.0896
     13 N          59.5364   88.9861    7.2698 N.3     1  UNL1       -0.2714
     14 C          60.1860   89.8906    8.2747 C.3     1  UNL1        0.0739
     15 C          60.8582   89.0322    9.3048 C.3     1  UNL1        0.0387
     16 C          61.6751   89.0606   10.5625 C.3     1  UNL1        0.0922
     17 N          61.9458   87.6431   10.9716 N.pl3   1  UNL1       -0.3076
     18 C          61.2962   86.7386    9.9667 C.3     1  UNL1        0.0922
     19 C          60.6240   87.5970    8.9366 C.3     1  UNL1        0.0387
     20 C          59.8071   87.5686    7.6789 C.3     1  UNL1        0.0739
     21 C          64.5069   92.0522   12.7746 C.3     1  UNL1        0.0886
     22 N          65.8034   92.8051   12.8192 N.3     1  UNL1       -0.2667
     23 C          66.2882   93.3879   14.1136 C.3     1  UNL1        0.0899
     24 C          66.6153   92.9752   11.5695 C.3     1  UNL1        0.0978
     25 C          67.4811   91.8528   11.0789 C.3     1  UNL1        0.0224
     26 C          68.2930   92.0229    9.8292 C.3     1  UNL1        0.0065
     27 C          68.2391   93.3154    9.0699 C.3     1  UNL1        0.0277
     28 C          67.3733   94.4378    9.5604 C.ar    1  UNL1       -0.0073
     29 C          67.3194   95.7303    8.8011 C.ar    1  UNL1       -0.0015
     30 C          66.4536   96.8527    9.2916 C.ar    1  UNL1        0.0203
     31 C          65.6417   96.6826   10.5414 C.ar    1  UNL1        0.0985
     32 N          65.6956   95.3901   11.3007 N.ar    1  UNL1       -0.2471
     33 C          66.5614   94.2677   10.8102 C.ar    1  UNL1        0.0695
@<TRIPOS>BOND
     1    12    13    1
     2    13    14    1
     3    15    14    1
     4    15    16    1
     5    16    17    1
     6    17     1    1
     7     1     2   ar
     8     2     3   ar
     9     3     4   ar
    10     4     5   ar
    11     5     6   ar
    12     6     7    1
    13     7     8    1
    14     8    21    1
    15    21    22    1
    16    22    23    1
    17    24    22    1
    18    24    25    1
    19    25    26    1
    20    26    27    1
    21    27    28    1
    22    28    29   ar
    23    29    30   ar
    24    30    31   ar
    25    31    32   ar
    26    32    33   ar
    27     8     9    1
    28     9    10    1
    29    17    18    1
    30    19    18    1
    31    19    20    1
    32    20    13    1
    33    19    15    1
    34     6     1   ar
    35    33    24    1
    36    10     5    1
    37    33    28   ar
    38     9    11    1
@<TRIPOS>MOLECULE
*****
 33 38 0 0 0
SMALL
GASTEIGER

@<TRIPOS>ATOM
      1 C          61.2284   86.6639    9.6102 C.ar    1  UNL1        0.0436
      2 C          60.4131   86.3275    8.3969 C.ar    1  UNL1        0.0142
      3 C          59.6846   87.4112    7.6588 C.ar    1  UNL1        0.0010
      4 C          59.7714   88.8313    8.1340 C.ar    1  UNL1       -0.0032
      5 C          60.5867   89.1677    9.3473 C.ar    1  UNL1       -0.0091
      6 C          61.3152   88.0840   10.0854 C.ar    1  UNL1       -0.0101
      7 C          62.1305   88.4204   11.2987 C.3     1  UNL1        0.0444
      8 C          62.2173   89.8405   11.7739 C.3     1  UNL1        0.0749
      9 N          61.4887   90.9242   11.0358 N.3     1  UNL1       -0.2934
     10 C          60.6734   90.5878    9.8225 C.3     1  UNL1        0.0954
     11 H          62.1909   91.6023   10.7399 H       1  UNL1        0.1236
     12 C          64.9277   81.1613   13.3584 C.3     1  UNL1        0.0896
     13 N          64.1992   82.2450   12.6202 N.3     1  UNL1       -0.2714
     14 C          63.1852   83.1826   13.2058 C.3     1  UNL1        0.0739
     15 C          62.7161   84.0984   12.1144 C.3     1  UNL1        0.0387
     16 C          61.7995   85.2438   11.8017 C.3     1  UNL1        0.0922
     17 N          61.9570   85.5802   10.3484 N.pl3   1  UNL1       -0.3076
     18 C          62.9709   84.6426    9.7629 C.3     1  UNL1        0.0922
     19 C          63.4401   83.7268   10.8543 C.3     1  UNL1        0.0387
     20 C          64.3567   82.5813   11.1669 C.3     1  UNL1        0.0739
     21 C          63.0326   90.1769   12.9872 C.3     1  UNL1        0.0886
     22 N          64.1557   91.1659   12.8855 N.3     1  UNL1       -0.2667
     23 C          64.5324   91.7384   11.5511 C.3     1  UNL1        0.0899
     24 C          64.9022   91.5824   14.1180 C.3     1  UNL1        0.0978
     25 C          64.1660   91.7800   15.4099 C.3     1  UNL1        0.0224
     26 C          64.9124   92.1965   16.6425 C.3     1  UNL1        0.0065
     27 C          66.3952   92.4155   16.5832 C.3     1  UNL1        0.0277
     28 C          67.1315   92.2179   15.2914 C.ar    1  UNL1       -0.0073
     29 C          68.6142   92.4369   15.2321 C.ar    1  UNL1       -0.0015
     30 C          69.3505   92.2393   13.9402 C.ar    1  UNL1        0.0203
     31 C          68.6040   91.8228   12.7077 C.ar    1  UNL1        0.0985
     32 N          67.1212   91.6038   12.7669 N.ar    1  UNL1       -0.2471
     33 C          66.3850   91.8014   14.0588 C.ar    1  UNL1        0.0695
@<TRIPOS>BOND
     1    12    13    1
     2    13    14    1
     3    15    14    1
     4    15    16    1
     5    16    17    1
     6    17     1    1
     7     1     2   ar
     8     2     3   ar
     9     3     4   ar
    10     4     5   ar
    11     5     6   ar
    12     6     7    1
    13     7     8    1
    14     8    21    1
    15    21    22    1
    16    22    23    1
    17    24    22    1
    18    24    25    1
    19    25    26    1
    20    26    27    1
    21    27    28    1
    22    28    29   ar
    23    29    30   ar
    24    30    31   ar
    25    31    32   ar
    26    32    33   ar
    27     8     9    1
    28     9    10    1
    29    17    18    1
    30    19    18    1
    31    19    20    1
    32    20    13    1
    33    19    15    1
    34     6     1   ar
    35    33    24    1
    36    10     5    1
    37    33    28   ar
    38     9    11    1
