@<TRIPOS>MOLECULE
*****
 28 30 0 0 0
SMALL
GASTEIGER

@<TRIPOS>ATOM
      1 C          63.4673   90.7085   11.7911 C.ar    1  UNL1        0.1534
      2 C          62.4119   90.7843   10.7279 C.ar    1  UNL1        0.0351
      3 C          61.4868   89.6247   10.5055 C.ar    1  UNL1        0.0722
      4 CL         60.4314   89.7004    9.4423 Cl      1  UNL1       -0.0809
      5 C          61.6172   88.3893   11.3463 C.ar    1  UNL1        0.0577
      6 C          62.6726   88.3135   12.4094 C.ar    1  UNL1        0.0462
      7 C          63.5977   89.4731   12.6318 C.ar    1  UNL1        0.1602
      8 F          64.6532   89.3974   13.6950 F       1  UNL1       -0.2027
      9 O          64.7920   91.8266   10.5683 O.2     1  UNL1       -0.1498
     10 S          64.3925   91.8682   12.0135 S.O2    1  UNL1        0.0772
     11 O          63.9929   91.9097   13.4587 O.2     1  UNL1       -0.1498
     12 N          65.3176   93.0277   12.2359 N.pl3   1  UNL1       -0.1936
     13 H          65.2552   93.8245   11.6610 H       1  UNL1        0.1758
     14 C          66.3378   92.9734   13.3342 C.ar    1  UNL1        0.1786
     15 N          66.4200   93.9036   14.5081 N.ar    1  UNL1       -0.2214
     16 C          67.5879   93.4844   15.3508 C.ar    1  UNL1        0.1079
     17 C          68.2275   92.2950   14.6978 C.ar    1  UNL1        0.0588
     18 S          67.4548   91.9792   13.4515 S.2     1  UNL1       -0.0497
     19 N          60.6921   87.2296   11.1238 N.pl3   1  UNL1       -0.3319
     20 H          59.8889   87.1262   11.6838 H       1  UNL1        0.1468
     21 C          60.9906   86.2276   10.0483 C.3     1  UNL1        0.0871
     22 C          62.4007   85.7694    9.8206 C.3     1  UNL1        0.0237
     23 C          62.9610   84.6369   10.6290 C.3     1  UNL1        0.0314
     24 C          63.7835   83.5744    9.9622 C.3     1  UNL1        0.0051
     25 C          64.3438   82.4420   10.7707 C.3     1  UNL1        0.0322
     26 C          64.0817   82.3721   12.2460 C.3     1  UNL1        0.1422
     27 O          63.2592   83.4346   12.9128 O.3     1  UNL1       -0.3538
     28 C          62.6989   84.5670   12.1042 C.3     1  UNL1        0.1421
@<TRIPOS>BOND
     1     9    10    2
     2    10    11    2
     3    10    12    1
     4    12    14    1
     5    14    15   ar
     6    15    16   ar
     7    16    17   ar
     8    17    18   ar
     9    10     1    1
    10     1     2   ar
    11     2     3   ar
    12     3     4    1
    13     3     5   ar
    14     5    19    1
    15    19    21    1
    16    21    22    1
    17    22    23    1
    18    23    24    1
    19    24    25    1
    20    25    26    1
    21    26    27    1
    22    27    28    1
    23     5     6   ar
    24     6     7   ar
    25     7     8    1
    26    18    14   ar
    27     7     1   ar
    28    28    23    1
    29    12    13    1
    30    19    20    1
@<TRIPOS>MOLECULE
*****
 28 30 0 0 0
SMALL
GASTEIGER

@<TRIPOS>ATOM
      1 C          63.5482   90.8632   11.7125 C.ar    1  UNL1        0.1534
      2 C          62.4629   90.9015   10.6778 C.ar    1  UNL1        0.0351
      3 C          61.5147   89.7472   10.5424 C.ar    1  UNL1        0.0722
      4 CL         60.4293   89.7854    9.5077 Cl      1  UNL1       -0.0809
      5 C          61.6518   88.5545   11.4418 C.ar    1  UNL1        0.0577
      6 C          62.7371   88.5163   12.4765 C.ar    1  UNL1        0.0462
      7 C          63.6853   89.6706   12.6118 C.ar    1  UNL1        0.1602
      8 F          64.7706   89.6324   13.6466 F       1  UNL1       -0.2027
      9 O          64.3203   91.9876   13.3371 O.2     1  UNL1       -0.1498
     10 S          64.4964   92.0176   11.8478 S.O2    1  UNL1        0.0772
     11 O          64.6725   92.0477   10.3585 O.2     1  UNL1       -0.1498
     12 N          65.4446   93.1720   11.9832 N.pl3   1  UNL1       -0.1936
     13 H          65.3618   93.7903   12.7449 H       1  UNL1        0.1758
     14 C          66.5190   93.3843   10.9582 C.ar    1  UNL1        0.1786
     15 N          67.6318   92.4313   10.6368 N.ar    1  UNL1       -0.2214
     16 C          68.4697   93.0450    9.5545 C.ar    1  UNL1        0.1079
     17 C          67.8747   94.3774    9.2070 C.ar    1  UNL1        0.0588
     18 S          66.6690   94.5871   10.0745 S.2     1  UNL1       -0.0497
     19 N          60.7035   87.4001   11.3064 N.pl3   1  UNL1       -0.3319
     20 H          59.9257   87.3291   11.9058 H       1  UNL1        0.1468
     21 C          60.9404   86.3540   10.2579 C.3     1  UNL1        0.0871
     22 C          62.3381   85.9072    9.9464 C.3     1  UNL1        0.0237
     23 C          62.9265   84.7291   10.6645 C.3     1  UNL1        0.0314
     24 C          63.7039   83.6976    9.9019 C.3     1  UNL1        0.0051
     25 C          64.2923   82.5195   10.6200 C.3     1  UNL1        0.0322
     26 C          64.1033   82.3728   12.1008 C.3     1  UNL1        0.1422
     27 O          63.3259   83.4042   12.8635 O.3     1  UNL1       -0.3538
     28 C          62.7375   84.5824   12.1453 C.3     1  UNL1        0.1421
@<TRIPOS>BOND
     1     9    10    2
     2    10    11    2
     3    10    12    1
     4    12    14    1
     5    14    15   ar
     6    15    16   ar
     7    16    17   ar
     8    17    18   ar
     9    10     1    1
    10     1     2   ar
    11     2     3   ar
    12     3     4    1
    13     3     5   ar
    14     5    19    1
    15    19    21    1
    16    21    22    1
    17    22    23    1
    18    23    24    1
    19    24    25    1
    20    25    26    1
    21    26    27    1
    22    27    28    1
    23     5     6   ar
    24     6     7   ar
    25     7     8    1
    26    18    14   ar
    27     7     1   ar
    28    28    23    1
    29    12    13    1
    30    19    20    1
@<TRIPOS>MOLECULE
*****
 28 30 0 0 0
SMALL
GASTEIGER

@<TRIPOS>ATOM
      1 C          64.8662   91.7148   12.0485 C.ar    1  UNL1        0.1534
      2 C          64.9373   90.7348   13.1819 C.ar    1  UNL1        0.0351
      3 C          64.0185   89.5495   13.2072 C.ar    1  UNL1        0.0722
      4 CL         64.0896   88.5694   14.3406 Cl      1  UNL1       -0.0809
      5 C          63.0286   89.3440   12.0991 C.ar    1  UNL1        0.0577
      6 C          62.9575   90.3240   10.9657 C.ar    1  UNL1        0.0462
      7 C          63.8763   91.5093   10.9404 C.ar    1  UNL1        0.1602
      8 F          63.8052   92.4893    9.8070 F       1  UNL1       -0.2027
      9 O          66.2388   92.5190   10.6453 O.2     1  UNL1       -0.1498
     10 S          65.7850   92.9002   12.0232 S.O2    1  UNL1        0.0772
     11 O          65.3312   93.2814   13.4011 O.2     1  UNL1       -0.1498
     12 N          66.7037   94.0856   11.9978 N.pl3   1  UNL1       -0.1936
     13 H          67.3164   94.2497   12.7508 H       1  UNL1        0.1758
     14 C          66.6891   95.0209   10.8252 C.ar    1  UNL1        0.1786
     15 N          67.7429   95.1188    9.7622 N.ar    1  UNL1       -0.2214
     16 C          67.3232   96.1809    8.7898 C.ar    1  UNL1        0.1079
     17 C          66.0099   96.7396    9.2518 C.ar    1  UNL1        0.0588
     18 S          65.6181   96.0226   10.5098 S.2     1  UNL1       -0.0497
     19 N          62.1098   88.1586   12.1244 N.pl3   1  UNL1       -0.3319
     20 H          61.7165   87.8587   12.9757 H       1  UNL1        0.1468
     21 C          61.7902   87.4301   10.8528 C.3     1  UNL1        0.0871
     22 C          61.4076   85.9802   10.8948 C.3     1  UNL1        0.0237
     23 C          62.4418   84.9405   11.2098 C.3     1  UNL1        0.0314
     24 C          63.1736   84.2493   10.0977 C.3     1  UNL1        0.0051
     25 C          64.2078   83.2096   10.4128 C.3     1  UNL1        0.0322
     26 C          64.5103   82.8609   11.8400 C.3     1  UNL1        0.1422
     27 O          63.7785   83.5521   12.9522 O.3     1  UNL1       -0.3538
     28 C          62.7443   84.5919   12.6370 C.3     1  UNL1        0.1421
@<TRIPOS>BOND
     1     9    10    2
     2    10    11    2
     3    10    12    1
     4    12    14    1
     5    14    15   ar
     6    15    16   ar
     7    16    17   ar
     8    17    18   ar
     9    10     1    1
    10     1     2   ar
    11     2     3   ar
    12     3     4    1
    13     3     5   ar
    14     5    19    1
    15    19    21    1
    16    21    22    1
    17    22    23    1
    18    23    24    1
    19    24    25    1
    20    25    26    1
    21    26    27    1
    22    27    28    1
    23     5     6   ar
    24     6     7   ar
    25     7     8    1
    26    18    14   ar
    27     7     1   ar
    28    28    23    1
    29    12    13    1
    30    19    20    1
@<TRIPOS>MOLECULE
*****
 28 30 0 0 0
SMALL
GASTEIGER

@<TRIPOS>ATOM
      1 C          63.8603   86.6089   13.9826 C.ar    1  UNL1        0.1534
      2 C          64.3147   87.7401   14.8566 C.ar    1  UNL1        0.0351
      3 C          64.1779   89.1563   14.3818 C.ar    1  UNL1        0.0722
      4 CL         64.6323   90.2876   15.2558 Cl      1  UNL1       -0.0809
      5 C          63.5866   89.4414   13.0331 C.ar    1  UNL1        0.0577
      6 C          63.1322   88.3102   12.1591 C.ar    1  UNL1        0.0462
      7 C          63.2690   86.8940   12.6339 C.ar    1  UNL1        0.1602
      8 F          62.8146   85.7627   11.7599 F       1  UNL1       -0.2027
      9 O          65.4890   85.2982   14.3425 O.2     1  UNL1       -0.1498
     10 S          63.9972   85.1925   14.4574 S.O2    1  UNL1        0.0772
     11 O          62.5053   85.0869   14.5722 O.2     1  UNL1       -0.1498
     12 N          64.1341   83.7763   14.9321 N.pl3   1  UNL1       -0.1936
     13 H          64.6213   83.5812   15.7650 H       1  UNL1        0.1758
     14 C          63.5285   82.6571   14.1378 C.ar    1  UNL1        0.1786
     15 N          62.4937   81.6878   14.6273 N.ar    1  UNL1       -0.2214
     16 C          62.1771   80.7425   13.5065 C.ar    1  UNL1        0.1079
     17 C          63.0162   81.1275   12.3243 C.ar    1  UNL1        0.0588
     18 S          63.8515   82.3109   12.7144 S.2     1  UNL1       -0.0497
     19 N          63.4497   90.8577   12.5583 N.pl3   1  UNL1       -0.3319
     20 H          62.6091   91.3479   12.7077 H       1  UNL1        0.1468
     21 C          64.5936   91.5272   11.8560 C.3     1  UNL1        0.0871
     22 C          65.1810   92.7896   12.4141 C.3     1  UNL1        0.0237
     23 C          66.4128   92.7302   13.2679 C.3     1  UNL1        0.0314
     24 C          66.4192   93.3771   14.6212 C.3     1  UNL1        0.0051
     25 C          67.6510   93.3177   15.4751 C.3     1  UNL1        0.0322
     26 C          68.8764   92.6113   14.9757 C.3     1  UNL1        0.1422
     27 O          68.8700   91.9643   13.6225 O.3     1  UNL1       -0.3538
     28 C          67.6381   92.0237   12.7686 C.3     1  UNL1        0.1421
@<TRIPOS>BOND
     1     9    10    2
     2    10    11    2
     3    10    12    1
     4    12    14    1
     5    14    15   ar
     6    15    16   ar
     7    16    17   ar
     8    17    18   ar
     9    10     1    1
    10     1     2   ar
    11     2     3   ar
    12     3     4    1
    13     3     5   ar
    14     5    19    1
    15    19    21    1
    16    21    22    1
    17    22    23    1
    18    23    24    1
    19    24    25    1
    20    25    26    1
    21    26    27    1
    22    27    28    1
    23     5     6   ar
    24     6     7   ar
    25     7     8    1
    26    18    14   ar
    27     7     1   ar
    28    28    23    1
    29    12    13    1
    30    19    20    1
@<TRIPOS>MOLECULE
*****
 28 30 0 0 0
SMALL
GASTEIGER

@<TRIPOS>ATOM
      1 C          63.7820   86.6985   13.8131 C.ar    1  UNL1        0.1534
      2 C          64.2380   87.7811   14.7459 C.ar    1  UNL1        0.0351
      3 C          64.0983   89.2209   14.3491 C.ar    1  UNL1        0.0722
      4 CL         64.5542   90.3035   15.2819 Cl      1  UNL1       -0.0809
      5 C          63.5028   89.5781   13.0196 C.ar    1  UNL1        0.0577
      6 C          63.0468   88.4955   12.0868 C.ar    1  UNL1        0.0462
      7 C          63.1865   87.0557   12.4836 C.ar    1  UNL1        0.1602
      8 F          62.7305   85.9731   11.5508 F       1  UNL1       -0.2027
      9 O          62.4434   85.0687   14.0407 O.2     1  UNL1       -0.1498
     10 S          63.9217   85.2586   14.2099 S.O2    1  UNL1        0.0772
     11 O          65.3999   85.4485   14.3790 O.2     1  UNL1       -0.1498
     12 N          64.0612   83.8188   14.6066 N.pl3   1  UNL1       -0.1936
     13 H          64.4717   83.5837   15.4700 H       1  UNL1        0.1758
     14 C          63.5754   82.7372   13.6878 C.ar    1  UNL1        0.1786
     15 N          63.8084   82.6671   12.2076 N.ar    1  UNL1       -0.2214
     16 C          63.1483   81.4224   11.6929 C.ar    1  UNL1        0.1079
     17 C          62.5073   80.7232   12.8550 C.ar    1  UNL1        0.0588
     18 S          62.7712   81.5359   14.0879 S.2     1  UNL1       -0.0497
     19 N          63.3631   91.0180   12.6229 N.pl3   1  UNL1       -0.3319
     20 H          62.6765   91.5812   13.0476 H       1  UNL1        0.1468
     21 C          64.2697   91.5996   11.5789 C.3     1  UNL1        0.0871
     22 C          65.5445   92.2774   11.9860 C.3     1  UNL1        0.0237
     23 C          66.3188   93.0822   10.9847 C.3     1  UNL1        0.0314
     24 C          67.4623   92.4566   10.2425 C.3     1  UNL1        0.0051
     25 C          68.2366   93.2614    9.2412 C.3     1  UNL1        0.0322
     26 C          67.8673   94.6921    8.9820 C.3     1  UNL1        0.1422
     27 O          66.7238   95.3177    9.7242 O.3     1  UNL1       -0.3538
     28 C          65.9495   94.5128   10.7255 C.3     1  UNL1        0.1421
@<TRIPOS>BOND
     1     9    10    2
     2    10    11    2
     3    10    12    1
     4    12    14    1
     5    14    15   ar
     6    15    16   ar
     7    16    17   ar
     8    17    18   ar
     9    10     1    1
    10     1     2   ar
    11     2     3   ar
    12     3     4    1
    13     3     5   ar
    14     5    19    1
    15    19    21    1
    16    21    22    1
    17    22    23    1
    18    23    24    1
    19    24    25    1
    20    25    26    1
    21    26    27    1
    22    27    28    1
    23     5     6   ar
    24     6     7   ar
    25     7     8    1
    26    18    14   ar
    27     7     1   ar
    28    28    23    1
    29    12    13    1
    30    19    20    1
@<TRIPOS>MOLECULE
*****
 28 30 0 0 0
SMALL
GASTEIGER

@<TRIPOS>ATOM
      1 C          62.6501   89.7102   11.8570 C.ar    1  UNL1        0.1534
      2 C          63.2708   89.6538   13.2214 C.ar    1  UNL1        0.0351
      3 C          64.3288   90.6452   13.6056 C.ar    1  UNL1        0.0722
      4 CL         64.9495   90.5887   14.9700 Cl      1  UNL1       -0.0809
      5 C          64.7661   91.6931   12.6255 C.ar    1  UNL1        0.0577
      6 C          64.1454   91.7496   11.2611 C.ar    1  UNL1        0.0462
      7 C          63.0874   90.7582   10.8769 C.ar    1  UNL1        0.1602
      8 F          62.4667   90.8146    9.5125 F       1  UNL1       -0.2027
      9 O          62.6172   87.9119   10.7324 O.2     1  UNL1       -0.1498
     10 S          61.5921   88.7188   11.4727 S.O2    1  UNL1        0.0772
     11 O          60.5670   89.5257   12.2130 O.2     1  UNL1       -0.1498
     12 N          60.5341   87.7274   11.0884 N.pl3   1  UNL1       -0.1936
     13 H          60.1433   87.1351   11.7708 H       1  UNL1        0.1758
     14 C          60.0715   87.6383    9.6642 C.ar    1  UNL1        0.1786
     15 N          59.8094   86.3747    8.8997 N.ar    1  UNL1       -0.2214
     16 C          59.3657   86.7527    7.5176 C.ar    1  UNL1        0.1079
     17 C          59.3537   88.2500    7.4279 C.ar    1  UNL1        0.0588
     18 S          59.7899   88.7973    8.7546 S.2     1  UNL1       -0.0497
     19 N          65.8241   92.6846   13.0098 N.pl3   1  UNL1       -0.3319
     20 H          65.6252   93.3847   13.6728 H       1  UNL1        0.1468
     21 C          67.1852   92.6093   12.3840 C.3     1  UNL1        0.0871
     22 C          67.3337   92.7222   10.8956 C.3     1  UNL1        0.0237
     23 C          67.0072   94.0131   10.2050 C.3     1  UNL1        0.0314
     24 C          66.1320   95.0256   10.8825 C.3     1  UNL1        0.0051
     25 C          65.8055   96.3165   10.1919 C.3     1  UNL1        0.0322
     26 C          66.3542   96.5949    8.8238 C.3     1  UNL1        0.1422
     27 O          67.2294   95.5824    8.1464 O.3     1  UNL1       -0.3538
     28 C          67.5559   94.2914    8.8371 C.3     1  UNL1        0.1421
@<TRIPOS>BOND
     1     9    10    2
     2    10    11    2
     3    10    12    1
     4    12    14    1
     5    14    15   ar
     6    15    16   ar
     7    16    17   ar
     8    17    18   ar
     9    10     1    1
    10     1     2   ar
    11     2     3   ar
    12     3     4    1
    13     3     5   ar
    14     5    19    1
    15    19    21    1
    16    21    22    1
    17    22    23    1
    18    23    24    1
    19    24    25    1
    20    25    26    1
    21    26    27    1
    22    27    28    1
    23     5     6   ar
    24     6     7   ar
    25     7     8    1
    26    18    14   ar
    27     7     1   ar
    28    28    23    1
    29    12    13    1
    30    19    20    1
@<TRIPOS>MOLECULE
*****
 28 30 0 0 0
SMALL
GASTEIGER

@<TRIPOS>ATOM
      1 C          64.7701   91.9108   11.8337 C.ar    1  UNL1        0.1534
      2 C          63.9747   91.5655   10.6098 C.ar    1  UNL1        0.0351
      3 C          62.8862   90.5364   10.6884 C.ar    1  UNL1        0.0722
      4 CL         62.0907   90.1910    9.4645 Cl      1  UNL1       -0.0809
      5 C          62.5933   89.8526   11.9909 C.ar    1  UNL1        0.0577
      6 C          63.3887   90.1979   13.2149 C.ar    1  UNL1        0.0462
      7 C          64.4771   91.2270   13.1362 C.ar    1  UNL1        0.1602
      8 F          65.2726   91.5723   14.3602 F       1  UNL1       -0.2027
      9 O          64.9966   93.7834   10.8633 O.2     1  UNL1       -0.1498
     10 S          65.8586   92.9399   11.7551 S.O2    1  UNL1        0.0772
     11 O          66.7206   92.0964   12.6470 O.2     1  UNL1       -0.1498
     12 N          66.9470   93.9691   11.6765 N.pl3   1  UNL1       -0.1936
     13 H          67.6004   94.0514   12.4084 H       1  UNL1        0.1758
     14 C          67.0399   94.8728   10.4829 C.ar    1  UNL1        0.1786
     15 N          67.4438   94.4645    9.0972 N.ar    1  UNL1       -0.2214
     16 C          67.3988   95.6829    8.2234 C.ar    1  UNL1        0.1079
     17 C          66.9671   96.8442    9.0690 C.ar    1  UNL1        0.0588
     18 S          66.7453   96.3435   10.4656 S.2     1  UNL1       -0.0497
     19 N          61.5048   88.8234   12.0695 N.pl3   1  UNL1       -0.3319
     20 H          60.7142   88.9851   12.6336 H       1  UNL1        0.1468
     21 C          61.6208   87.5479   11.2887 C.3     1  UNL1        0.0871
     22 C          60.6398   87.2463   10.1948 C.3     1  UNL1        0.0237
     23 C          61.0590   86.4130    9.0201 C.3     1  UNL1        0.0314
     24 C          62.4603   85.8842    8.9377 C.3     1  UNL1        0.0051
     25 C          62.8795   85.0509    7.7631 C.3     1  UNL1        0.0322
     26 C          61.8975   84.7464    6.6708 C.3     1  UNL1        0.1422
     27 O          60.4962   85.2752    6.7533 O.3     1  UNL1       -0.3538
     28 C          60.0770   86.1085    7.9280 C.3     1  UNL1        0.1421
@<TRIPOS>BOND
     1     9    10    2
     2    10    11    2
     3    10    12    1
     4    12    14    1
     5    14    15   ar
     6    15    16   ar
     7    16    17   ar
     8    17    18   ar
     9    10     1    1
    10     1     2   ar
    11     2     3   ar
    12     3     4    1
    13     3     5   ar
    14     5    19    1
    15    19    21    1
    16    21    22    1
    17    22    23    1
    18    23    24    1
    19    24    25    1
    20    25    26    1
    21    26    27    1
    22    27    28    1
    23     5     6   ar
    24     6     7   ar
    25     7     8    1
    26    18    14   ar
    27     7     1   ar
    28    28    23    1
    29    12    13    1
    30    19    20    1
@<TRIPOS>MOLECULE
*****
 28 30 0 0 0
SMALL
GASTEIGER

@<TRIPOS>ATOM
      1 C          64.8001   91.8714   11.9059 C.ar    1  UNL1        0.1534
      2 C          63.9250   91.6106   10.7159 C.ar    1  UNL1        0.0351
      3 C          62.9774   90.4480   10.7222 C.ar    1  UNL1        0.0722
      4 CL         62.1023   90.1871    9.5321 Cl      1  UNL1       -0.0809
      5 C          62.9047   89.5461   11.9186 C.ar    1  UNL1        0.0577
      6 C          63.7797   89.8069   13.1086 C.ar    1  UNL1        0.0462
      7 C          64.7274   90.9695   13.1023 C.ar    1  UNL1        0.1602
      8 F          65.6025   91.2304   14.2924 F       1  UNL1       -0.2027
      9 O          64.8880   93.7294   10.8861 O.2     1  UNL1       -0.1498
     10 S          65.7478   93.0341   11.8996 S.O2    1  UNL1        0.0772
     11 O          66.6076   92.3389   12.9132 O.2     1  UNL1       -0.1498
     12 N          66.6954   94.1968   11.8933 N.pl3   1  UNL1       -0.1936
     13 H          67.1909   94.4325   12.7108 H       1  UNL1        0.1758
     14 C          66.8882   95.0005   10.6415 C.ar    1  UNL1        0.1786
     15 N          66.5088   96.4391   10.4501 N.ar    1  UNL1       -0.2214
     16 C          66.8803   96.8343    9.0517 C.ar    1  UNL1        0.1079
     17 C          67.4894   95.6401    8.3787 C.ar    1  UNL1        0.0588
     18 S          67.4942   94.5066    9.3613 S.2     1  UNL1       -0.0497
     19 N          61.9570   88.3834   11.9249 N.pl3   1  UNL1       -0.3319
     20 H          61.2339   88.3413   12.5917 H       1  UNL1        0.1468
     21 C          62.1109   87.2849   10.9152 C.3     1  UNL1        0.0871
     22 C          61.5877   85.9114   11.2154 C.3     1  UNL1        0.0237
     23 C          62.5420   84.7964   11.5250 C.3     1  UNL1        0.0314
     24 C          63.3088   84.1362   10.4177 C.3     1  UNL1        0.0051
     25 C          64.2632   83.0212   10.7273 C.3     1  UNL1        0.0322
     26 C          64.4508   82.5663   12.1444 C.3     1  UNL1        0.1422
     27 O          63.6840   83.2265   13.2517 O.3     1  UNL1       -0.3538
     28 C          62.7296   84.3416   12.9420 C.3     1  UNL1        0.1421
@<TRIPOS>BOND
     1     9    10    2
     2    10    11    2
     3    10    12    1
     4    12    14    1
     5    14    15   ar
     6    15    16   ar
     7    16    17   ar
     8    17    18   ar
     9    10     1    1
    10     1     2   ar
    11     2     3   ar
    12     3     4    1
    13     3     5   ar
    14     5    19    1
    15    19    21    1
    16    21    22    1
    17    22    23    1
    18    23    24    1
    19    24    25    1
    20    25    26    1
    21    26    27    1
    22    27    28    1
    23     5     6   ar
    24     6     7   ar
    25     7     8    1
    26    18    14   ar
    27     7     1   ar
    28    28    23    1
    29    12    13    1
    30    19    20    1
@<TRIPOS>MOLECULE
*****
 28 30 0 0 0
SMALL
GASTEIGER

@<TRIPOS>ATOM
      1 C          63.3770   85.7256   15.2690 C.ar    1  UNL1        0.1534
      2 C          63.1641   86.6050   16.4653 C.ar    1  UNL1        0.0351
      3 C          63.4220   88.0794   16.3677 C.ar    1  UNL1        0.0722
      4 CL         63.2092   88.9589   17.5640 Cl      1  UNL1       -0.0809
      5 C          63.8928   88.6744   15.0737 C.ar    1  UNL1        0.0577
      6 C          64.1057   87.7949   13.8774 C.ar    1  UNL1        0.0462
      7 C          63.8478   86.3206   13.9750 C.ar    1  UNL1        0.1602
      8 F          64.0607   85.4410   12.7787 F       1  UNL1       -0.2027
      9 O          61.6428   84.5126   15.4144 O.2     1  UNL1       -0.1498
     10 S          63.1191   84.2511   15.3666 S.O2    1  UNL1        0.0772
     11 O          64.5953   83.9896   15.3187 O.2     1  UNL1       -0.1498
     12 N          62.8611   82.7767   15.4642 N.pl3   1  UNL1       -0.1936
     13 H          62.7363   82.3561   16.3455 H       1  UNL1        0.1758
     14 C          62.7933   81.9431   14.2189 C.ar    1  UNL1        0.1786
     15 N          62.6752   80.4488   14.1636 N.ar    1  UNL1       -0.2214
     16 C          62.6406   80.0397   12.7209 C.ar    1  UNL1        0.1079
     17 C          62.7372   81.2812   11.8845 C.ar    1  UNL1        0.0588
     18 S          62.8316   82.4576   12.8105 S.2     1  UNL1       -0.0497
     19 N          64.1508   90.1489   14.9761 N.pl3   1  UNL1       -0.3319
     20 H          64.3784   90.6633   15.7840 H       1  UNL1        0.1468
     21 C          64.0619   90.8395   13.6475 C.3     1  UNL1        0.0871
     22 C          65.1824   91.7231   13.1851 C.3     1  UNL1        0.0237
     23 C          66.2866   92.0913   14.1312 C.3     1  UNL1        0.0314
     24 C          67.7177   91.8992   13.7250 C.3     1  UNL1        0.0051
     25 C          68.8218   92.2674   14.6711 C.3     1  UNL1        0.0322
     26 C          68.4949   92.8278   16.0236 C.3     1  UNL1        0.1422
     27 O          67.0638   93.0199   16.4299 O.3     1  UNL1       -0.3538
     28 C          65.9596   92.6516   15.4837 C.3     1  UNL1        0.1421
@<TRIPOS>BOND
     1     9    10    2
     2    10    11    2
     3    10    12    1
     4    12    14    1
     5    14    15   ar
     6    15    16   ar
     7    16    17   ar
     8    17    18   ar
     9    10     1    1
    10     1     2   ar
    11     2     3   ar
    12     3     4    1
    13     3     5   ar
    14     5    19    1
    15    19    21    1
    16    21    22    1
    17    22    23    1
    18    23    24    1
    19    24    25    1
    20    25    26    1
    21    26    27    1
    22    27    28    1
    23     5     6   ar
    24     6     7   ar
    25     7     8    1
    26    18    14   ar
    27     7     1   ar
    28    28    23    1
    29    12    13    1
    30    19    20    1
