@<TRIPOS>MOLECULE
*****
 27 30 0 0 0
SMALL
GASTEIGER

@<TRIPOS>ATOM
      1 C          63.8604   88.3259   14.9204 C.2     1  UNL1        0.1469
      2 C          63.4245   88.4867   16.3466 C.3     1  UNL1        0.1701
      3 C          63.1168   87.2765   17.1778 C.2     1  UNL1        0.3260
      4 O          62.6810   87.4373   18.6040 O.2     1  UNL1       -0.2529
      5 N          63.2450   85.9056   16.5827 N.am    1  UNL1       -0.0024
      6 C          63.6808   85.7448   15.1564 C.2     1  UNL1        0.4125
      7 N          63.9885   86.9550   14.3253 N.2     1  UNL1       -0.0766
      8 C          63.1217   91.1303   10.6088 C.3     1  UNL1        0.0521
      9 C          63.7988   90.9382   11.9334 C.ar    1  UNL1        0.0595
     10 C          63.4910   89.7281   12.7646 C.ar    1  UNL1        0.0173
     11 C          64.1681   89.5361   14.0892 C.ar    1  UNL1        0.0333
     12 C          65.1529   90.5542   14.5827 C.ar    1  UNL1        0.0233
     13 C          65.4607   91.7643   13.7515 C.ar    1  UNL1        0.0985
     14 N          64.7836   91.9564   12.4269 N.ar    1  UNL1       -0.2481
     15 N          63.8090   84.3739   14.5613 N.pl3   1  UNL1       -0.2179
     16 H          64.5582   83.7915   14.8235 H       1  UNL1        0.2457
     17 C          62.7956   83.8903   13.5668 C.3     1  UNL1        0.1908
     18 C          63.1333   83.8612   12.1056 C.ar    1  UNL1        0.0147
     19 C          63.9941   82.7624   11.5565 C.ar    1  UNL1       -0.0011
     20 C          64.3318   82.7334   10.0953 C.ar    1  UNL1       -0.0002
     21 C          63.8087   83.8031    9.1832 C.ar    1  UNL1       -0.0000
     22 C          62.9478   84.9019    9.7323 C.ar    1  UNL1       -0.0002
     23 C          62.4246   85.9716    8.8202 C.ar    1  UNL1       -0.0000
     24 C          61.5637   87.0704    9.3693 C.ar    1  UNL1       -0.0000
     25 C          61.2260   87.0995   10.8305 C.ar    1  UNL1       -0.0000
     26 C          61.7492   86.0297   11.7426 C.ar    1  UNL1       -0.0002
     27 C          62.6101   84.9310   11.1935 C.ar    1  UNL1       -0.0009
@<TRIPOS>BOND
     1     8     9    1
     2     9    10   ar
     3    10    11   ar
     4    11     1    1
     5     1     2    1
     6     2     3    1
     7     3     4    2
     8     3     5    1
     9     5     6    2
    10     6    15    1
    11    15    17    1
    12    17    18    1
    13    18    19   ar
    14    19    20   ar
    15    20    21   ar
    16    21    22   ar
    17    22    23   ar
    18    23    24   ar
    19    24    25   ar
    20    25    26   ar
    21    26    27   ar
    22     6     7    1
    23    11    12   ar
    24    12    13   ar
    25    13    14   ar
    26    14     9   ar
    27     7     1    2
    28    27    18   ar
    29    27    22   ar
    30    15    16    1
@<TRIPOS>MOLECULE
*****
 27 30 0 0 0
SMALL
GASTEIGER

@<TRIPOS>ATOM
      1 C          65.8687   92.6608   12.3198 C.2     1  UNL1        0.1469
      2 C          66.3299   92.9101   13.7252 C.3     1  UNL1        0.1701
      3 C          65.5987   92.2855   14.8765 C.2     1  UNL1        0.3260
      4 O          66.0599   92.5348   16.2818 O.2     1  UNL1       -0.2529
      5 N          64.4064   91.4117   14.6223 N.am    1  UNL1       -0.0024
      6 C          63.9452   91.1624   13.2168 C.2     1  UNL1        0.4125
      7 N          64.6764   91.7870   12.0656 N.2     1  UNL1       -0.0766
      8 C          67.0800   96.8545    9.5009 C.3     1  UNL1        0.0521
      9 C          67.2056   95.3822    9.7591 C.ar    1  UNL1        0.0595
     10 C          66.4744   94.7577   10.9103 C.ar    1  UNL1        0.0173
     11 C          66.5999   93.2854   11.1686 C.ar    1  UNL1        0.0333
     12 C          67.4566   92.4377   10.2756 C.ar    1  UNL1        0.0233
     13 C          68.1878   93.0622    9.1244 C.ar    1  UNL1        0.0985
     14 N          68.0623   94.5345    8.8661 N.ar    1  UNL1       -0.2481
     15 N          62.7528   90.2885   12.9626 N.pl3   1  UNL1       -0.2179
     16 H          62.2151   89.9575   13.7179 H       1  UNL1        0.2457
     17 C          62.3797   89.9189   11.5576 C.3     1  UNL1        0.1908
     18 C          62.1594   88.4805   11.1938 C.ar    1  UNL1        0.0147
     19 C          62.8175   87.3954   11.9933 C.ar    1  UNL1       -0.0011
     20 C          62.5971   85.9569   11.6295 C.ar    1  UNL1       -0.0002
     21 C          61.7186   85.6036   10.4661 C.ar    1  UNL1       -0.0000
     22 C          61.0604   86.6888    9.6665 C.ar    1  UNL1       -0.0002
     23 C          60.1819   86.3355    8.5032 C.ar    1  UNL1       -0.0000
     24 C          59.5238   87.4207    7.7037 C.ar    1  UNL1       -0.0000
     25 C          59.7442   88.8591    8.0675 C.ar    1  UNL1       -0.0000
     26 C          60.6227   89.2124    9.2308 C.ar    1  UNL1       -0.0002
     27 C          61.2808   88.1272   10.0303 C.ar    1  UNL1       -0.0009
@<TRIPOS>BOND
     1     8     9    1
     2     9    10   ar
     3    10    11   ar
     4    11     1    1
     5     1     2    1
     6     2     3    1
     7     3     4    2
     8     3     5    1
     9     5     6    2
    10     6    15    1
    11    15    17    1
    12    17    18    1
    13    18    19   ar
    14    19    20   ar
    15    20    21   ar
    16    21    22   ar
    17    22    23   ar
    18    23    24   ar
    19    24    25   ar
    20    25    26   ar
    21    26    27   ar
    22     6     7    1
    23    11    12   ar
    24    12    13   ar
    25    13    14   ar
    26    14     9   ar
    27     7     1    2
    28    27    18   ar
    29    27    22   ar
    30    15    16    1
@<TRIPOS>MOLECULE
*****
 27 30 0 0 0
SMALL
GASTEIGER

@<TRIPOS>ATOM
      1 C          63.2189   84.9503   14.7477 C.2     1  UNL1        0.1469
      2 C          62.6800   84.9498   16.1475 C.3     1  UNL1        0.1701
      3 C          62.7897   86.1834   16.9939 C.2     1  UNL1        0.3260
      4 O          62.2508   86.1828   18.3937 O.2     1  UNL1       -0.2529
      5 N          63.4384   87.4174   16.4404 N.am    1  UNL1       -0.0024
      6 C          63.9773   87.4179   15.0405 C.2     1  UNL1        0.4125
      7 N          63.8675   86.1843   14.1942 N.2     1  UNL1       -0.0766
      8 C          64.1745   82.4483   10.2949 C.3     1  UNL1        0.0521
      9 C          63.5869   82.4658   11.6750 C.ar    1  UNL1        0.0595
     10 C          63.6967   83.6993   12.5213 C.ar    1  UNL1        0.0173
     11 C          63.1091   83.7167   13.9013 C.ar    1  UNL1        0.0333
     12 C          62.4119   82.5006   14.4350 C.ar    1  UNL1        0.0233
     13 C          62.3021   81.2670   13.5887 C.ar    1  UNL1        0.0985
     14 N          62.8896   81.2496   12.2087 N.ar    1  UNL1       -0.2481
     15 N          64.6259   88.6519   14.4870 N.pl3   1  UNL1       -0.2179
     16 H          65.5938   88.6609   14.3073 H       1  UNL1        0.2457
     17 C          63.7998   89.8723   14.2073 C.3     1  UNL1        0.1908
     18 C          63.6947   90.4023   12.8080 C.ar    1  UNL1        0.0147
     19 C          62.7227   89.7883   11.8446 C.ar    1  UNL1       -0.0011
     20 C          62.6175   90.3183   10.4453 C.ar    1  UNL1       -0.0002
     21 C          63.4843   91.4622   10.0094 C.ar    1  UNL1       -0.0000
     22 C          64.4564   92.0762   10.9728 C.ar    1  UNL1       -0.0002
     23 C          65.3232   93.2202   10.5369 C.ar    1  UNL1       -0.0000
     24 C          66.2952   93.8341   11.5004 C.ar    1  UNL1       -0.0000
     25 C          66.4004   93.3041   12.8997 C.ar    1  UNL1       -0.0000
     26 C          65.5335   92.1602   13.3356 C.ar    1  UNL1       -0.0002
     27 C          64.5615   91.5463   12.3721 C.ar    1  UNL1       -0.0009
@<TRIPOS>BOND
     1     8     9    1
     2     9    10   ar
     3    10    11   ar
     4    11     1    1
     5     1     2    1
     6     2     3    1
     7     3     4    2
     8     3     5    1
     9     5     6    2
    10     6    15    1
    11    15    17    1
    12    17    18    1
    13    18    19   ar
    14    19    20   ar
    15    20    21   ar
    16    21    22   ar
    17    22    23   ar
    18    23    24   ar
    19    24    25   ar
    20    25    26   ar
    21    26    27   ar
    22     6     7    1
    23    11    12   ar
    24    12    13   ar
    25    13    14   ar
    26    14     9   ar
    27     7     1    2
    28    27    18   ar
    29    27    22   ar
    30    15    16    1
@<TRIPOS>MOLECULE
*****
 27 30 0 0 0
SMALL
GASTEIGER

@<TRIPOS>ATOM
      1 C          62.6891   85.1577   11.5796 C.2     1  UNL1        0.1469
      2 C          62.7751   84.7150   10.1490 C.3     1  UNL1        0.1701
      3 C          62.5001   85.6913    9.0439 C.2     1  UNL1        0.3260
      4 O          62.5862   85.2486    7.6133 O.2     1  UNL1       -0.2529
      5 N          62.1390   87.1104    9.3695 N.am    1  UNL1       -0.0024
      6 C          62.0530   87.5530   10.8001 C.2     1  UNL1        0.4125
      7 N          62.3280   86.5767   11.9051 N.2     1  UNL1       -0.0766
      8 C          62.4686   80.3232   13.4716 C.3     1  UNL1        0.0521
      9 C          62.8538   81.7641   13.6306 C.ar    1  UNL1        0.0595
     10 C          62.5788   82.7404   12.5256 C.ar    1  UNL1        0.0173
     11 C          62.9641   84.1813   12.6847 C.ar    1  UNL1        0.0333
     12 C          63.6244   84.6459   13.9488 C.ar    1  UNL1        0.0233
     13 C          63.8994   83.6696   15.0539 C.ar    1  UNL1        0.0985
     14 N          63.5141   82.2288   14.8948 N.ar    1  UNL1       -0.2481
     15 N          61.6919   88.9720   11.1257 N.pl3   1  UNL1       -0.2179
     16 H          60.7807   89.1913   11.4272 H       1  UNL1        0.2457
     17 C          62.7190   90.0569   10.9919 C.3     1  UNL1        0.1908
     18 C          63.5990   90.4043   12.1559 C.ar    1  UNL1        0.0147
     19 C          63.5445   89.5818   13.4091 C.ar    1  UNL1       -0.0011
     20 C          64.4244   89.9292   14.5731 C.ar    1  UNL1       -0.0002
     21 C          65.3589   91.0991   14.4840 C.ar    1  UNL1       -0.0000
     22 C          65.4135   91.9217   13.2308 C.ar    1  UNL1       -0.0002
     23 C          66.3480   93.0916   13.1416 C.ar    1  UNL1       -0.0000
     24 C          66.4026   93.9140   11.8885 C.ar    1  UNL1       -0.0000
     25 C          65.5226   93.5666   10.7244 C.ar    1  UNL1       -0.0000
     26 C          64.5881   92.3968   10.8136 C.ar    1  UNL1       -0.0002
     27 C          64.5336   91.5743   12.0667 C.ar    1  UNL1       -0.0009
@<TRIPOS>BOND
     1     8     9    1
     2     9    10   ar
     3    10    11   ar
     4    11     1    1
     5     1     2    1
     6     2     3    1
     7     3     4    2
     8     3     5    1
     9     5     6    2
    10     6    15    1
    11    15    17    1
    12    17    18    1
    13    18    19   ar
    14    19    20   ar
    15    20    21   ar
    16    21    22   ar
    17    22    23   ar
    18    23    24   ar
    19    24    25   ar
    20    25    26   ar
    21    26    27   ar
    22     6     7    1
    23    11    12   ar
    24    12    13   ar
    25    13    14   ar
    26    14     9   ar
    27     7     1    2
    28    27    18   ar
    29    27    22   ar
    30    15    16    1
@<TRIPOS>MOLECULE
*****
 27 30 0 0 0
SMALL
GASTEIGER

@<TRIPOS>ATOM
      1 C          62.8245   85.3349   12.0785 C.2     1  UNL1        0.1469
      2 C          62.6884   84.0168   12.7814 C.3     1  UNL1        0.1701
      3 C          63.1199   83.8813   14.2116 C.2     1  UNL1        0.3260
      4 O          62.9838   82.5632   14.9144 O.2     1  UNL1       -0.2529
      5 N          63.6874   85.0641   14.9390 N.am    1  UNL1       -0.0024
      6 C          63.8235   86.3822   14.2361 C.2     1  UNL1        0.4125
      7 N          63.3920   86.5176   12.8059 N.2     1  UNL1       -0.0766
      8 C          59.4547   87.1093    8.5435 C.3     1  UNL1        0.0521
      9 C          60.7081   86.3575    8.8808 C.ar    1  UNL1        0.0595
     10 C          61.1396   86.2221   10.3110 C.ar    1  UNL1        0.0173
     11 C          62.3930   85.4703   10.6483 C.ar    1  UNL1        0.0333
     12 C          63.2149   84.8540    9.5554 C.ar    1  UNL1        0.0233
     13 C          62.7835   84.9894    8.1252 C.ar    1  UNL1        0.0985
     14 N          61.5301   85.7412    7.7879 N.ar    1  UNL1       -0.2481
     15 N          64.3911   87.5649   14.9634 N.pl3   1  UNL1       -0.2179
     16 H          65.2175   87.4690   15.4897 H       1  UNL1        0.2457
     17 C          63.6995   88.8939   14.8889 C.3     1  UNL1        0.1908
     18 C          64.3187   90.0193   14.1143 C.ar    1  UNL1        0.0147
     19 C          65.4410   90.8138   14.7136 C.ar    1  UNL1       -0.0011
     20 C          66.0603   91.9392   13.9390 C.ar    1  UNL1       -0.0002
     21 C          65.5573   92.2701   12.5651 C.ar    1  UNL1       -0.0000
     22 C          64.4350   91.4755   11.9658 C.ar    1  UNL1       -0.0002
     23 C          63.9320   91.8063   10.5920 C.ar    1  UNL1       -0.0000
     24 C          62.8097   91.0118    9.9927 C.ar    1  UNL1       -0.0000
     25 C          62.1905   89.8864   10.7673 C.ar    1  UNL1       -0.0000
     26 C          62.6934   89.5555   12.1411 C.ar    1  UNL1       -0.0002
     27 C          63.8157   90.3501   12.7404 C.ar    1  UNL1       -0.0009
@<TRIPOS>BOND
     1     8     9    1
     2     9    10   ar
     3    10    11   ar
     4    11     1    1
     5     1     2    1
     6     2     3    1
     7     3     4    2
     8     3     5    1
     9     5     6    2
    10     6    15    1
    11    15    17    1
    12    17    18    1
    13    18    19   ar
    14    19    20   ar
    15    20    21   ar
    16    21    22   ar
    17    22    23   ar
    18    23    24   ar
    19    24    25   ar
    20    25    26   ar
    21    26    27   ar
    22     6     7    1
    23    11    12   ar
    24    12    13   ar
    25    13    14   ar
    26    14     9   ar
    27     7     1    2
    28    27    18   ar
    29    27    22   ar
    30    15    16    1
@<TRIPOS>MOLECULE
*****
 27 30 0 0 0
SMALL
GASTEIGER

@<TRIPOS>ATOM
      1 C          61.6884   86.5391    9.8937 C.2     1  UNL1        0.1469
      2 C          60.5289   86.3111    8.9699 C.3     1  UNL1        0.1701
      3 C          59.7397   87.4781    8.4547 C.2     1  UNL1        0.3260
      4 O          58.5802   87.2501    7.5308 O.2     1  UNL1       -0.2529
      5 N          60.1100   88.8730    8.8634 N.am    1  UNL1       -0.0024
      6 C          61.2695   89.1010    9.7873 C.2     1  UNL1        0.4125
      7 N          62.0587   87.9341   10.3025 N.2     1  UNL1       -0.0766
      8 C          63.3020   83.5977   13.8617 C.3     1  UNL1        0.0521
      9 C          63.2844   83.9015   12.3929 C.ar    1  UNL1        0.0595
     10 C          62.4952   85.0684   11.8777 C.ar    1  UNL1        0.0173
     11 C          62.4776   85.3722   10.4089 C.ar    1  UNL1        0.0333
     12 C          63.2493   84.5090    9.4553 C.ar    1  UNL1        0.0233
     13 C          64.0386   83.3421    9.9704 C.ar    1  UNL1        0.0985
     14 N          64.0561   83.0383   11.4392 N.ar    1  UNL1       -0.2481
     15 N          61.6398   90.4959   10.1960 N.pl3   1  UNL1       -0.2179
     16 H          60.9390   91.1780   10.3096 H       1  UNL1        0.2457
     17 C          63.0778   90.8516   10.4318 C.3     1  UNL1        0.1908
     18 C          63.6719   90.7047   11.8012 C.ar    1  UNL1        0.0147
     19 C          63.2729   89.5504   12.6720 C.ar    1  UNL1       -0.0011
     20 C          63.8671   89.4035   14.0415 C.ar    1  UNL1       -0.0002
     21 C          64.8603   90.4109   14.5401 C.ar    1  UNL1       -0.0000
     22 C          65.2593   91.5653   13.6693 C.ar    1  UNL1       -0.0002
     23 C          66.2525   92.5727   14.1680 C.ar    1  UNL1       -0.0000
     24 C          66.6515   93.7270   13.2972 C.ar    1  UNL1       -0.0000
     25 C          66.0573   93.8739   11.9277 C.ar    1  UNL1       -0.0000
     26 C          65.0642   92.8665   11.4291 C.ar    1  UNL1       -0.0002
     27 C          64.6652   91.7122   12.2999 C.ar    1  UNL1       -0.0009
@<TRIPOS>BOND
     1     8     9    1
     2     9    10   ar
     3    10    11   ar
     4    11     1    1
     5     1     2    1
     6     2     3    1
     7     3     4    2
     8     3     5    1
     9     5     6    2
    10     6    15    1
    11    15    17    1
    12    17    18    1
    13    18    19   ar
    14    19    20   ar
    15    20    21   ar
    16    21    22   ar
    17    22    23   ar
    18    23    24   ar
    19    24    25   ar
    20    25    26   ar
    21    26    27   ar
    22     6     7    1
    23    11    12   ar
    24    12    13   ar
    25    13    14   ar
    26    14     9   ar
    27     7     1    2
    28    27    18   ar
    29    27    22   ar
    30    15    16    1
@<TRIPOS>MOLECULE
*****
 27 30 0 0 0
SMALL
GASTEIGER

@<TRIPOS>ATOM
      1 C          62.3390   87.6905   11.1238 C.2     1  UNL1        0.1469
      2 C          62.6050   89.1640   11.2128 C.3     1  UNL1        0.1701
      3 C          63.3308   89.7248   12.3998 C.2     1  UNL1        0.3260
      4 O          63.5968   91.1983   12.4888 O.2     1  UNL1       -0.2529
      5 N          63.7905   88.8120   13.4978 N.am    1  UNL1       -0.0024
      6 C          63.5244   87.3384   13.4087 C.2     1  UNL1        0.4125
      7 N          62.7987   86.7777   12.2218 N.2     1  UNL1       -0.0766
      8 C          62.3073   84.7239    6.8578 C.3     1  UNL1        0.0521
      9 C          61.5974   85.6465    7.8039 C.ar    1  UNL1        0.0595
     10 C          62.3231   86.2072    8.9908 C.ar    1  UNL1        0.0173
     11 C          61.6132   87.1297    9.9368 C.ar    1  UNL1        0.0333
     12 C          60.1776   87.4915    9.6959 C.ar    1  UNL1        0.0233
     13 C          59.4518   86.9308    8.5090 C.ar    1  UNL1        0.0985
     14 N          60.1617   86.0083    7.5630 N.ar    1  UNL1       -0.2481
     15 N          63.9841   86.4256   14.5066 N.pl3   1  UNL1       -0.2179
     16 H          63.8987   86.7046   15.4469 H       1  UNL1        0.2457
     17 C          64.5739   85.0877   14.1720 C.3     1  UNL1        0.1908
     18 C          63.6797   83.8959   13.9989 C.ar    1  UNL1        0.0147
     19 C          62.7960   83.4512   15.1265 C.ar    1  UNL1       -0.0011
     20 C          61.9018   82.2594   14.9534 C.ar    1  UNL1       -0.0002
     21 C          61.8912   81.5123   13.6528 C.ar    1  UNL1       -0.0000
     22 C          62.7749   81.9569   12.5252 C.ar    1  UNL1       -0.0002
     23 C          62.7644   81.2098   11.2246 C.ar    1  UNL1       -0.0000
     24 C          63.6480   81.6545   10.0970 C.ar    1  UNL1       -0.0000
     25 C          64.5422   82.8463   10.2701 C.ar    1  UNL1       -0.0000
     26 C          64.5528   83.5934   11.5707 C.ar    1  UNL1       -0.0002
     27 C          63.6692   83.1487   12.6982 C.ar    1  UNL1       -0.0009
@<TRIPOS>BOND
     1     8     9    1
     2     9    10   ar
     3    10    11   ar
     4    11     1    1
     5     1     2    1
     6     2     3    1
     7     3     4    2
     8     3     5    1
     9     5     6    2
    10     6    15    1
    11    15    17    1
    12    17    18    1
    13    18    19   ar
    14    19    20   ar
    15    20    21   ar
    16    21    22   ar
    17    22    23   ar
    18    23    24   ar
    19    24    25   ar
    20    25    26   ar
    21    26    27   ar
    22     6     7    1
    23    11    12   ar
    24    12    13   ar
    25    13    14   ar
    26    14     9   ar
    27     7     1    2
    28    27    18   ar
    29    27    22   ar
    30    15    16    1
@<TRIPOS>MOLECULE
*****
 27 30 0 0 0
SMALL
GASTEIGER

@<TRIPOS>ATOM
      1 C          62.7148   85.1873   11.4692 C.2     1  UNL1        0.1469
      2 C          62.9307   84.6501   10.0855 C.3     1  UNL1        0.1701
      3 C          62.6415   85.5123    8.8925 C.2     1  UNL1        0.3260
      4 O          62.8574   84.9751    7.5088 O.2     1  UNL1       -0.2529
      5 N          62.1364   86.9117    9.0834 N.am    1  UNL1       -0.0024
      6 C          61.9205   87.4489   10.4672 C.2     1  UNL1        0.4125
      7 N          62.2097   86.5868   11.6601 N.2     1  UNL1       -0.0766
      8 C          62.6492   80.5339   13.7804 C.3     1  UNL1        0.0521
      9 C          62.9712   81.9985   13.8177 C.ar    1  UNL1        0.0595
     10 C          62.6820   82.8606   12.6248 C.ar    1  UNL1        0.0173
     11 C          63.0040   84.3251   12.6621 C.ar    1  UNL1        0.0333
     12 C          63.6153   84.9275   13.8924 C.ar    1  UNL1        0.0233
     13 C          63.9045   84.0654   15.0853 C.ar    1  UNL1        0.0985
     14 N          63.5825   82.6009   15.0479 N.ar    1  UNL1       -0.2481
     15 N          61.4153   88.8484   10.6581 N.pl3   1  UNL1       -0.2179
     16 H          60.7959   89.2419   10.0018 H       1  UNL1        0.2457
     17 C          61.8539   89.6482   11.8488 C.3     1  UNL1        0.1908
     18 C          63.0081   90.5989   11.7299 C.ar    1  UNL1        0.0147
     19 C          63.3534   91.1964   10.3981 C.ar    1  UNL1       -0.0011
     20 C          64.5076   92.1471   10.2792 C.ar    1  UNL1       -0.0002
     21 C          65.3165   92.5002   11.4920 C.ar    1  UNL1       -0.0000
     22 C          64.9712   91.9026   12.8239 C.ar    1  UNL1       -0.0002
     23 C          65.7801   92.2556   14.0367 C.ar    1  UNL1       -0.0000
     24 C          65.4348   91.6580   15.3685 C.ar    1  UNL1       -0.0000
     25 C          64.2806   90.7074   15.4874 C.ar    1  UNL1       -0.0000
     26 C          63.4717   90.3543   14.2746 C.ar    1  UNL1       -0.0002
     27 C          63.8170   90.9519   12.9428 C.ar    1  UNL1       -0.0009
@<TRIPOS>BOND
     1     8     9    1
     2     9    10   ar
     3    10    11   ar
     4    11     1    1
     5     1     2    1
     6     2     3    1
     7     3     4    2
     8     3     5    1
     9     5     6    2
    10     6    15    1
    11    15    17    1
    12    17    18    1
    13    18    19   ar
    14    19    20   ar
    15    20    21   ar
    16    21    22   ar
    17    22    23   ar
    18    23    24   ar
    19    24    25   ar
    20    25    26   ar
    21    26    27   ar
    22     6     7    1
    23    11    12   ar
    24    12    13   ar
    25    13    14   ar
    26    14     9   ar
    27     7     1    2
    28    27    18   ar
    29    27    22   ar
    30    15    16    1
@<TRIPOS>MOLECULE
*****
 27 30 0 0 0
SMALL
GASTEIGER

@<TRIPOS>ATOM
      1 C          62.6689   85.6816   11.6604 C.2     1  UNL1        0.1469
      2 C          62.6767   84.4135   12.4616 C.3     1  UNL1        0.1701
      3 C          63.1543   84.4276   13.8835 C.2     1  UNL1        0.3260
      4 O          63.1621   83.1595   14.6847 O.2     1  UNL1       -0.2529
      5 N          63.6240   85.7098   14.5042 N.am    1  UNL1       -0.0024
      6 C          63.6161   86.9779   13.7030 C.2     1  UNL1        0.4125
      7 N          63.1386   86.9638   12.2811 N.2     1  UNL1       -0.0766
      8 C          59.0990   86.9372    8.0996 C.3     1  UNL1        0.0521
      9 C          60.4065   86.2953    8.4582 C.ar    1  UNL1        0.0595
     10 C          60.8839   86.3094    9.8800 C.ar    1  UNL1        0.0173
     11 C          62.1913   85.6675   10.2385 C.ar    1  UNL1        0.0333
     12 C          63.0213   85.0114    9.1751 C.ar    1  UNL1        0.0233
     13 C          62.5438   84.9973    7.7532 C.ar    1  UNL1        0.0985
     14 N          61.2364   85.6392    7.3948 N.ar    1  UNL1       -0.2481
     15 N          64.0858   88.2602   14.3237 N.pl3   1  UNL1       -0.2179
     16 H          64.8853   88.2650   14.8983 H       1  UNL1        0.2457
     17 C          63.3376   89.5350   14.0690 C.3     1  UNL1        0.1908
     18 C          63.8676   90.5311   13.0806 C.ar    1  UNL1        0.0147
     19 C          63.3781   90.5142   11.6629 C.ar    1  UNL1       -0.0011
     20 C          63.9082   91.5103   10.6745 C.ar    1  UNL1       -0.0002
     21 C          64.9277   92.5233   11.1039 C.ar    1  UNL1       -0.0000
     22 C          65.4173   92.5401   12.5217 C.ar    1  UNL1       -0.0002
     23 C          66.4369   93.5530   12.9511 C.ar    1  UNL1       -0.0000
     24 C          66.9264   93.5699   14.3688 C.ar    1  UNL1       -0.0000
     25 C          66.3964   92.5738   15.3572 C.ar    1  UNL1       -0.0000
     26 C          65.3768   91.5609   14.9278 C.ar    1  UNL1       -0.0002
     27 C          64.8873   91.5440   13.5100 C.ar    1  UNL1       -0.0009
@<TRIPOS>BOND
     1     8     9    1
     2     9    10   ar
     3    10    11   ar
     4    11     1    1
     5     1     2    1
     6     2     3    1
     7     3     4    2
     8     3     5    1
     9     5     6    2
    10     6    15    1
    11    15    17    1
    12    17    18    1
    13    18    19   ar
    14    19    20   ar
    15    20    21   ar
    16    21    22   ar
    17    22    23   ar
    18    23    24   ar
    19    24    25   ar
    20    25    26   ar
    21    26    27   ar
    22     6     7    1
    23    11    12   ar
    24    12    13   ar
    25    13    14   ar
    26    14     9   ar
    27     7     1    2
    28    27    18   ar
    29    27    22   ar
    30    15    16    1
