@<TRIPOS>MOLECULE
*****
 22 25 0 0 0
SMALL
GASTEIGER

@<TRIPOS>ATOM
      1 N          62.2718   90.1995   11.5932 N.am    1  UNL1       -0.2733
      2 C          62.7134   90.7969   10.2901 C.3     1  UNL1        0.1000
      3 C          63.9039   91.7084   10.2481 C.3     1  UNL1        0.0654
      4 C          64.6529   92.0225   11.5092 C.ar    1  UNL1        0.0432
      5 C          64.2113   91.4252   12.8123 C.ar    1  UNL1        0.0666
      6 C          65.1398   91.9135   13.8844 C.ar    1  UNL1        0.0212
      7 C          65.1918   91.6556   15.3612 C.ar    1  UNL1        0.0016
      8 C          66.2592   92.2969   16.1973 C.ar    1  UNL1        0.0001
      9 C          67.2747   93.1961   15.5568 C.ar    1  UNL1        0.0015
     10 C          67.2227   93.4540   14.0801 C.ar    1  UNL1        0.0172
     11 C          66.1552   92.8128   13.2439 C.ar    1  UNL1        0.0598
     12 N          65.8543   92.8801   11.7759 N.ar    1  UNL1       -0.3284
     13 C          66.6203   93.6669   10.7541 C.3     1  UNL1        0.1301
     14 C          63.0208   90.5137   12.8543 C.2     1  UNL1        0.2502
     15 O          62.5791   89.9163   14.1575 O.2     1  UNL1       -0.2699
     16 C          61.0812   89.2880   11.6353 C.3     1  UNL1        0.1237
     17 C          60.0437   88.6326    8.6114 C.3     1  UNL1        0.0494
     18 C          60.6581   87.6510    9.5648 C.2     1  UNL1        0.0628
     19 N          60.9035   86.1959    9.2958 N.2     1  UNL1       -0.2310
     20 C          61.5320   85.5979   10.5195 C.2     1  UNL1        0.1939
     21 N          61.6751   86.6834   11.5448 N.2     1  UNL1       -0.2446
     22 C          61.1350   87.9523   10.9547 C.3     1  UNL1        0.1603
@<TRIPOS>BOND
     1    17    18    1
     2    18    19    2
     3    19    20    1
     4    20    21    2
     5    21    22    1
     6    22    16    1
     7    16     1    1
     8     1     2    1
     9     2     3    1
    10     3     4    1
    11     4     5   ar
    12     5     6   ar
    13     6     7   ar
    14     7     8   ar
    15     8     9   ar
    16     9    10   ar
    17    10    11   ar
    18    11    12   ar
    19    12    13    1
    20     5    14    1
    21    14    15    2
    22    22    18    1
    23    14     1   am
    24    12     4   ar
    25    11     6   ar
@<TRIPOS>MOLECULE
*****
 22 25 0 0 0
SMALL
GASTEIGER

@<TRIPOS>ATOM
      1 N          63.4119   90.1084   12.6112 N.am    1  UNL1       -0.2733
      2 C          62.6666   90.2910   11.3223 C.3     1  UNL1        0.1000
      3 C          62.1667   89.0942   10.5690 C.3     1  UNL1        0.0654
      4 C          62.4120   87.7146   11.1045 C.ar    1  UNL1        0.0432
      5 C          63.1573   87.5320   12.3933 C.ar    1  UNL1        0.0666
      6 C          63.2479   86.0609   12.6720 C.ar    1  UNL1        0.0212
      7 C          63.8689   85.2890   13.7982 C.ar    1  UNL1        0.0016
      8 C          63.8007   83.7907   13.8079 C.ar    1  UNL1        0.0001
      9 C          63.1113   83.0641   12.6912 C.ar    1  UNL1        0.0015
     10 C          62.4902   83.8359   11.5649 C.ar    1  UNL1        0.0172
     11 C          62.5585   85.3343   11.5553 C.ar    1  UNL1        0.0598
     12 N          62.0420   86.3564   10.5866 N.ar    1  UNL1       -0.3284
     13 C          61.2877   86.0704    9.3219 C.3     1  UNL1        0.1301
     14 C          63.6572   88.7288   13.1467 C.2     1  UNL1        0.2502
     15 O          64.4026   88.5462   14.4356 O.2     1  UNL1       -0.2699
     16 C          63.9118   91.3053   13.3646 C.3     1  UNL1        0.1237
     17 C          65.3542   92.8512   10.8788 C.3     1  UNL1        0.0494
     18 C          66.0226   92.4003   12.1436 C.2     1  UNL1        0.0628
     19 N          67.4713   92.5807   12.4880 N.2     1  UNL1       -0.2310
     20 C          67.7037   91.9817   13.8434 C.2     1  UNL1        0.1939
     21 N          66.3986   91.4310   14.3368 N.2     1  UNL1       -0.2446
     22 C          65.3596   91.6897   13.2862 C.3     1  UNL1        0.1603
@<TRIPOS>BOND
     1    17    18    1
     2    18    19    2
     3    19    20    1
     4    20    21    2
     5    21    22    1
     6    22    16    1
     7    16     1    1
     8     1     2    1
     9     2     3    1
    10     3     4    1
    11     4     5   ar
    12     5     6   ar
    13     6     7   ar
    14     7     8   ar
    15     8     9   ar
    16     9    10   ar
    17    10    11   ar
    18    11    12   ar
    19    12    13    1
    20     5    14    1
    21    14    15    2
    22    22    18    1
    23    14     1   am
    24    12     4   ar
    25    11     6   ar
@<TRIPOS>MOLECULE
*****
 22 25 0 0 0
SMALL
GASTEIGER

@<TRIPOS>ATOM
      1 N          63.4535   89.8948   12.8827 N.am    1  UNL1       -0.2733
      2 C          63.9309   88.5998   13.4702 C.3     1  UNL1        0.1000
      3 C          63.5004   87.2972   12.8637 C.3     1  UNL1        0.0654
      4 C          62.5923   87.2896   11.6697 C.ar    1  UNL1        0.0432
      5 C          62.1149   88.5846   11.0823 C.ar    1  UNL1        0.0666
      6 C          61.2323   88.2654    9.9121 C.ar    1  UNL1        0.0212
      7 C          60.4819   89.1407    8.9527 C.ar    1  UNL1        0.0016
      8 C          59.6634   88.5238    7.8576 C.ar    1  UNL1        0.0001
      9 C          59.5954   87.0315    7.7218 C.ar    1  UNL1        0.0015
     10 C          60.3458   86.1561    8.6812 C.ar    1  UNL1        0.0172
     11 C          61.1643   86.7731    9.7764 C.ar    1  UNL1        0.0598
     12 N          62.0049   86.1701   10.8626 N.ar    1  UNL1       -0.3284
     13 C          62.2201   84.7047   11.1000 C.3     1  UNL1        0.1301
     14 C          62.5455   89.8872   11.6888 C.2     1  UNL1        0.2502
     15 O          62.0680   91.1822   11.1014 O.2     1  UNL1       -0.2699
     16 C          63.8841   91.1975   13.4892 C.3     1  UNL1        0.1237
     17 C          65.2374   92.7190   10.9391 C.3     1  UNL1        0.0494
     18 C          65.9360   92.3374   12.2105 C.2     1  UNL1        0.0628
     19 N          67.3793   92.5881   12.5329 N.2     1  UNL1       -0.2310
     20 C          67.6493   92.0437   13.9043 C.2     1  UNL1        0.1939
     21 N          66.3728   91.4565   14.4295 N.2     1  UNL1       -0.2446
     22 C          65.3139   91.6380   13.3826 C.3     1  UNL1        0.1603
@<TRIPOS>BOND
     1    17    18    1
     2    18    19    2
     3    19    20    1
     4    20    21    2
     5    21    22    1
     6    22    16    1
     7    16     1    1
     8     1     2    1
     9     2     3    1
    10     3     4    1
    11     4     5   ar
    12     5     6   ar
    13     6     7   ar
    14     7     8   ar
    15     8     9   ar
    16     9    10   ar
    17    10    11   ar
    18    11    12   ar
    19    12    13    1
    20     5    14    1
    21    14    15    2
    22    22    18    1
    23    14     1   am
    24    12     4   ar
    25    11     6   ar
@<TRIPOS>MOLECULE
*****
 22 25 0 0 0
SMALL
GASTEIGER

@<TRIPOS>ATOM
      1 N          63.2533   84.9471   13.4375 N.am    1  UNL1       -0.2733
      2 C          62.4135   84.8624   12.1976 C.3     1  UNL1        0.1000
      3 C          62.1267   86.1000   11.4000 C.3     1  UNL1        0.0654
      4 C          62.6798   87.4223   11.8425 C.ar    1  UNL1        0.0432
      5 C          63.5197   87.5070   13.0824 C.ar    1  UNL1        0.0666
      6 C          63.9254   88.9387   13.2707 C.ar    1  UNL1        0.0212
      7 C          64.7552   89.6171   14.3200 C.ar    1  UNL1        0.0016
      8 C          64.9959   91.0958   14.2457 C.ar    1  UNL1        0.0001
      9 C          64.4068   91.8961   13.1221 C.ar    1  UNL1        0.0015
     10 C          63.5771   91.2176   12.0727 C.ar    1  UNL1        0.0172
     11 C          63.3364   89.7390   12.1470 C.ar    1  UNL1        0.0598
     12 N          62.5666   88.8018   11.2644 N.ar    1  UNL1       -0.3284
     13 C          61.8154   89.1780   10.0217 C.3     1  UNL1        0.1301
     14 C          63.8064   86.2693   13.8800 C.2     1  UNL1        0.2502
     15 O          64.6463   86.3539   15.1200 O.2     1  UNL1       -0.2699
     16 C          63.5401   83.7094   14.2351 C.3     1  UNL1        0.1237
     17 C          64.4508   82.2360   11.4693 C.3     1  UNL1        0.0494
     18 C          63.4780   81.6976   12.4761 C.2     1  UNL1        0.0628
     19 N          62.7529   80.3874   12.3884 N.2     1  UNL1       -0.2310
     20 C          61.8862   80.2549   13.6055 C.2     1  UNL1        0.1939
     21 N          62.0756   81.4832   14.4454 N.2     1  UNL1       -0.2446
     22 C          63.0594   82.3748   13.7474 C.3     1  UNL1        0.1603
@<TRIPOS>BOND
     1    17    18    1
     2    18    19    2
     3    19    20    1
     4    20    21    2
     5    21    22    1
     6    22    16    1
     7    16     1    1
     8     1     2    1
     9     2     3    1
    10     3     4    1
    11     4     5   ar
    12     5     6   ar
    13     6     7   ar
    14     7     8   ar
    15     8     9   ar
    16     9    10   ar
    17    10    11   ar
    18    11    12   ar
    19    12    13    1
    20     5    14    1
    21    14    15    2
    22    22    18    1
    23    14     1   am
    24    12     4   ar
    25    11     6   ar
@<TRIPOS>MOLECULE
*****
 22 25 0 0 0
SMALL
GASTEIGER

@<TRIPOS>ATOM
      1 N          63.8030   85.3983   12.8739 N.am    1  UNL1       -0.2733
      2 C          64.0713   86.7045   13.5608 C.3     1  UNL1        0.1000
      3 C          63.4543   87.9676   13.0375 C.3     1  UNL1        0.0654
      4 C          62.5691   87.9245   11.8274 C.ar    1  UNL1        0.0432
      5 C          62.3008   86.6183   11.1405 C.ar    1  UNL1        0.0666
      6 C          61.3930   86.8845    9.9764 C.ar    1  UNL1        0.0212
      7 C          60.7951   85.9777    8.9419 C.ar    1  UNL1        0.0016
      8 C          59.9045   86.5417    7.8749 C.ar    1  UNL1        0.0001
      9 C          59.6117   88.0125    7.8423 C.ar    1  UNL1        0.0015
     10 C          60.2096   88.9193    8.8768 C.ar    1  UNL1        0.0172
     11 C          61.1002   88.3553    9.9439 C.ar    1  UNL1        0.0598
     12 N          61.8271   88.9980   11.0878 N.ar    1  UNL1       -0.3284
     13 C          61.8142   90.4580   11.4318 C.3     1  UNL1        0.1301
     14 C          62.9177   85.3552   11.6638 C.2     1  UNL1        0.2502
     15 O          62.6495   84.0489   10.9769 O.2     1  UNL1       -0.2699
     16 C          64.4200   84.1351   13.3972 C.3     1  UNL1        0.1237
     17 C          61.9368   84.0390   15.5123 C.3     1  UNL1        0.0494
     18 C          62.4151   82.8997   14.6619 C.2     1  UNL1        0.0628
     19 N          61.8360   81.5163   14.6343 N.2     1  UNL1       -0.2310
     20 C          62.6195   80.7055   13.6450 C.2     1  UNL1        0.1939
     21 N          63.6829   81.5878   13.0612 N.2     1  UNL1       -0.2446
     22 C          63.5565   82.9439   13.6897 C.3     1  UNL1        0.1603
@<TRIPOS>BOND
     1    17    18    1
     2    18    19    2
     3    19    20    1
     4    20    21    2
     5    21    22    1
     6    22    16    1
     7    16     1    1
     8     1     2    1
     9     2     3    1
    10     3     4    1
    11     4     5   ar
    12     5     6   ar
    13     6     7   ar
    14     7     8   ar
    15     8     9   ar
    16     9    10   ar
    17    10    11   ar
    18    11    12   ar
    19    12    13    1
    20     5    14    1
    21    14    15    2
    22    22    18    1
    23    14     1   am
    24    12     4   ar
    25    11     6   ar
@<TRIPOS>MOLECULE
*****
 22 25 0 0 0
SMALL
GASTEIGER

@<TRIPOS>ATOM
      1 N          63.7797   85.0463   14.0152 N.am    1  UNL1       -0.2733
      2 C          64.5660   85.7833   15.0585 C.3     1  UNL1        0.1000
      3 C          64.7165   87.2732   14.9708 C.3     1  UNL1        0.0654
      4 C          64.0807   88.0259   13.8398 C.ar    1  UNL1        0.0432
      5 C          63.2944   87.2889   12.7965 C.ar    1  UNL1        0.0666
      6 C          62.7850   88.2925   11.8049 C.ar    1  UNL1        0.0212
      7 C          61.9528   88.1457   10.5656 C.ar    1  UNL1        0.0016
      8 C          61.5920   89.3564    9.7569 C.ar    1  UNL1        0.0001
      9 C          62.0634   90.7137   10.1874 C.ar    1  UNL1        0.0015
     10 C          62.8956   90.8605   11.4266 C.ar    1  UNL1        0.0172
     11 C          63.2564   89.6499   12.2354 C.ar    1  UNL1        0.0598
     12 N          64.0572   89.4851   13.4930 N.ar    1  UNL1       -0.3284
     13 C          64.7183   90.5863   14.2679 C.3     1  UNL1        0.1301
     14 C          63.1440   85.7990   12.8842 C.2     1  UNL1        0.2502
     15 O          62.3577   85.0619   11.8408 O.2     1  UNL1       -0.2699
     16 C          63.6292   83.5563   14.1028 C.3     1  UNL1        0.1237
     17 C          61.5774   81.0852   13.5258 C.3     1  UNL1        0.0494
     18 C          62.6270   81.5978   12.5847 C.2     1  UNL1        0.0628
     19 N          62.9177   81.0645   11.2132 N.2     1  UNL1       -0.2310
     20 C          64.0406   81.8708   10.6308 C.2     1  UNL1        0.1939
     21 N          64.4438   82.9024   11.6424 N.2     1  UNL1       -0.2446
     22 C          63.5701   82.7336   12.8500 C.3     1  UNL1        0.1603
@<TRIPOS>BOND
     1    17    18    1
     2    18    19    2
     3    19    20    1
     4    20    21    2
     5    21    22    1
     6    22    16    1
     7    16     1    1
     8     1     2    1
     9     2     3    1
    10     3     4    1
    11     4     5   ar
    12     5     6   ar
    13     6     7   ar
    14     7     8   ar
    15     8     9   ar
    16     9    10   ar
    17    10    11   ar
    18    11    12   ar
    19    12    13    1
    20     5    14    1
    21    14    15    2
    22    22    18    1
    23    14     1   am
    24    12     4   ar
    25    11     6   ar
@<TRIPOS>MOLECULE
*****
 22 25 0 0 0
SMALL
GASTEIGER

@<TRIPOS>ATOM
      1 N          64.2108   84.9925   13.5832 N.am    1  UNL1       -0.2733
      2 C          64.7325   85.8082   14.7288 C.3     1  UNL1        0.1000
      3 C          64.5063   87.2907   14.7582 C.3     1  UNL1        0.0654
      4 C          63.7583   87.9575   13.6420 C.ar    1  UNL1        0.0432
      5 C          63.2366   87.1419   12.4964 C.ar    1  UNL1        0.0666
      6 C          62.5405   88.0700   11.5456 C.ar    1  UNL1        0.0212
      7 C          61.8352   87.8295   10.2438 C.ar    1  UNL1        0.0016
      8 C          61.2213   88.9784    9.5001 C.ar    1  UNL1        0.0001
      9 C          61.3127   90.3677   10.0581 C.ar    1  UNL1        0.0015
     10 C          62.0181   90.6082   11.3598 C.ar    1  UNL1        0.0172
     11 C          62.6319   89.4593   12.1036 C.ar    1  UNL1        0.0598
     12 N          63.3846   89.3898   13.3992 N.ar    1  UNL1       -0.3284
     13 C          63.7070   90.5491   14.2949 C.3     1  UNL1        0.1301
     14 C          63.4629   85.6593   12.4669 C.2     1  UNL1        0.2502
     15 O          62.9412   84.8436   11.3213 O.2     1  UNL1       -0.2699
     16 C          64.4371   83.5099   13.5537 C.3     1  UNL1        0.1237
     17 C          63.4254   81.5461   11.1517 C.3     1  UNL1        0.0494
     18 C          62.8033   81.6689   12.5110 C.2     1  UNL1        0.0628
     19 N          61.6071   80.9107   13.0050 N.2     1  UNL1       -0.2310
     20 C          61.3327   81.3448   14.4144 C.2     1  UNL1        0.1939
     21 N          62.3594   82.3713   14.7915 N.2     1  UNL1       -0.2446
     22 C          63.2684   82.5716   13.6151 C.3     1  UNL1        0.1603
@<TRIPOS>BOND
     1    17    18    1
     2    18    19    2
     3    19    20    1
     4    20    21    2
     5    21    22    1
     6    22    16    1
     7    16     1    1
     8     1     2    1
     9     2     3    1
    10     3     4    1
    11     4     5   ar
    12     5     6   ar
    13     6     7   ar
    14     7     8   ar
    15     8     9   ar
    16     9    10   ar
    17    10    11   ar
    18    11    12   ar
    19    12    13    1
    20     5    14    1
    21    14    15    2
    22    22    18    1
    23    14     1   am
    24    12     4   ar
    25    11     6   ar
@<TRIPOS>MOLECULE
*****
 22 25 0 0 0
SMALL
GASTEIGER

@<TRIPOS>ATOM
      1 N          63.0592   88.9946   12.1190 N.am    1  UNL1       -0.2733
      2 C          63.4908   88.6896   13.5228 C.3     1  UNL1        0.1000
      3 C          64.3791   89.6481   14.2592 C.3     1  UNL1        0.0654
      4 C          64.8357   90.9115   13.5918 C.ar    1  UNL1        0.0432
      5 C          64.4041   91.2164   12.1880 C.ar    1  UNL1        0.0666
      6 C          65.0092   92.5306   11.7921 C.ar    1  UNL1        0.0212
      7 C          64.9307   93.3309   10.5259 C.ar    1  UNL1        0.0016
      8 C          65.6578   94.6384   10.4188 C.ar    1  UNL1        0.0001
      9 C          66.4634   95.1458   11.5780 C.ar    1  UNL1        0.0015
     10 C          66.5419   94.3455   12.8442 C.ar    1  UNL1        0.0172
     11 C          65.8148   93.0379   12.9513 C.ar    1  UNL1        0.0598
     12 N          65.7076   92.0372   14.0635 N.ar    1  UNL1       -0.3284
     13 C          66.3580   92.1437   15.4110 C.3     1  UNL1        0.1301
     14 C          63.5158   90.2579   11.4516 C.2     1  UNL1        0.2502
     15 O          63.0842   90.5628   10.0477 O.2     1  UNL1       -0.2699
     16 C          62.1709   88.0361   11.3825 C.3     1  UNL1        0.1237
     17 C          62.3480   86.0203    8.8222 C.3     1  UNL1        0.0494
     18 C          62.5297   85.6364   10.2608 C.2     1  UNL1        0.0628
     19 N          62.8248   84.2586   10.7752 N.2     1  UNL1       -0.2310
     20 C          62.9258   84.3337   12.2699 C.2     1  UNL1        0.1939
     21 N          62.6931   85.7578   12.6794 N.2     1  UNL1       -0.2446
     22 C          62.4483   86.5630   11.4376 C.3     1  UNL1        0.1603
@<TRIPOS>BOND
     1    17    18    1
     2    18    19    2
     3    19    20    1
     4    20    21    2
     5    21    22    1
     6    22    16    1
     7    16     1    1
     8     1     2    1
     9     2     3    1
    10     3     4    1
    11     4     5   ar
    12     5     6   ar
    13     6     7   ar
    14     7     8   ar
    15     8     9   ar
    16     9    10   ar
    17    10    11   ar
    18    11    12   ar
    19    12    13    1
    20     5    14    1
    21    14    15    2
    22    22    18    1
    23    14     1   am
    24    12     4   ar
    25    11     6   ar
@<TRIPOS>MOLECULE
*****
 22 25 0 0 0
SMALL
GASTEIGER

@<TRIPOS>ATOM
      1 N          62.5419   85.9898   12.4054 N.am    1  UNL1       -0.2733
      2 C          61.8784   86.4007   11.1245 C.3     1  UNL1        0.1000
      3 C          62.0100   87.8109   10.6305 C.3     1  UNL1        0.0654
      4 C          62.8052   88.8101   11.4174 C.ar    1  UNL1        0.0432
      5 C          63.4688   88.3992   12.6983 C.ar    1  UNL1        0.0666
      6 C          64.1827   89.5952   13.2550 C.ar    1  UNL1        0.0212
      7 C          65.0066   89.7855   14.4940 C.ar    1  UNL1        0.0016
      8 C          65.6081   91.1260   14.7960 C.ar    1  UNL1        0.0001
      9 C          65.3857   92.2761   13.8591 C.ar    1  UNL1        0.0015
     10 C          64.5619   92.0858   12.6202 C.ar    1  UNL1        0.0172
     11 C          63.9604   90.7453   12.3181 C.ar    1  UNL1        0.0598
     12 N          63.1091   90.2601   11.1824 N.ar    1  UNL1       -0.3284
     13 C          62.6433   91.0808   10.0165 C.3     1  UNL1        0.1301
     14 C          63.3371   86.9890   13.1924 C.2     1  UNL1        0.2502
     15 O          64.0007   86.5780   14.4734 O.2     1  UNL1       -0.2699
     16 C          62.4103   84.5795   12.8995 C.3     1  UNL1        0.1237
     17 C          61.7995   81.4146   13.4093 C.3     1  UNL1        0.0494
     18 C          62.6164   81.9855   12.2883 C.2     1  UNL1        0.0628
     19 N          63.2960   81.2019   11.2047 N.2     1  UNL1       -0.2310
     20 C          63.9967   82.1723   10.3007 C.2     1  UNL1        0.1939
     21 N          63.7502   83.5557   10.8255 N.2     1  UNL1       -0.2446
     22 C          62.8971   83.4402   12.0540 C.3     1  UNL1        0.1603
@<TRIPOS>BOND
     1    17    18    1
     2    18    19    2
     3    19    20    1
     4    20    21    2
     5    21    22    1
     6    22    16    1
     7    16     1    1
     8     1     2    1
     9     2     3    1
    10     3     4    1
    11     4     5   ar
    12     5     6   ar
    13     6     7   ar
    14     7     8   ar
    15     8     9   ar
    16     9    10   ar
    17    10    11   ar
    18    11    12   ar
    19    12    13    1
    20     5    14    1
    21    14    15    2
    22    22    18    1
    23    14     1   am
    24    12     4   ar
    25    11     6   ar
