@<TRIPOS>MOLECULE
*****
 43 47 0 0 0
SMALL
GASTEIGER

@<TRIPOS>ATOM
      1 N          64.5321   90.0325   13.4712 N.ar    1  UNL1       -0.2823
      2 C          64.3801   88.8867   14.4273 C.ar    1  UNL1        0.1831
      3 N          63.4236   87.9022   13.8225 N.ar    1  UNL1       -0.2236
      4 C          62.9843   88.4395   12.4927 C.ar    1  UNL1        0.0991
      5 C          62.0491   87.9000   11.4515 C.ar    1  UNL1        0.0206
      6 C          61.7989   88.6772   10.1932 C.ar    1  UNL1        0.0017
      7 C          62.4840   89.9938    9.9761 C.ar    1  UNL1        0.0016
      8 C          63.4192   90.5333   11.0173 C.ar    1  UNL1        0.0191
      9 C          63.6694   89.7562   12.2756 C.ar    1  UNL1        0.0835
     10 C          60.8636   88.1377    9.1519 C.ar    1  UNL1        0.0044
     11 C          60.6404   86.6587    9.0382 C.ar    1  UNL1        0.0208
     12 C          59.7052   86.1192    7.9970 C.ar    1  UNL1        0.1003
     13 N          58.9930   87.0586    7.0694 N.ar    1  UNL1       -0.2294
     14 C          59.2161   88.5376    7.1831 C.ar    1  UNL1        0.1285
     15 C          60.1515   89.0771    8.2244 C.ar    1  UNL1        0.0341
     16 N          58.5040   89.4770    6.2556 N.pl3   1  UNL1       -0.3166
     17 H          57.6996   89.1774    5.7736 H       1  UNL1        0.1482
     18 C          59.0176   90.8730    6.0624 C.3     1  UNL1        0.1138
     19 C          58.8045   91.5763    4.7547 C.3     1  UNL1        0.1720
     20 S          59.9837   92.0093    3.9350 S.O2    1  UNL1       -0.0065
     21 C          61.1630   92.4422    3.1153 C.3     1  UNL1        0.1761
     22 O          60.8992   91.2566    4.8544 O.2     1  UNL1       -0.1729
     23 O          59.0683   92.7620    3.0156 O.2     1  UNL1       -0.1729
     24 C          66.3081   93.4838   13.4926 C.ar    1  UNL1        0.1512
     25 C          65.2307   92.5678   12.9923 C.ar    1  UNL1        0.0619
     26 C          65.3951   91.2424   13.6750 C.ar    1  UNL1        0.0987
     27 S          66.5741   91.3391   14.5972 S.2     1  UNL1       -0.0618
     28 C          67.1384   92.7243   14.4845 C.ar    1  UNL1        0.1178
     29 C          68.3247   93.2567   15.2324 C.2     1  UNL1        0.2518
     30 N          69.7100   92.8402   14.8358 N.am    1  UNL1       -0.3248
     31 O          68.1256   94.2056   16.3770 O.2     1  UNL1       -0.2697
     32 H          69.8407   92.2174   14.0846 H       1  UNL1        0.1453
     33 H          70.4886   93.1896   15.3266 H       1  UNL1        0.1453
     34 O          66.5182   94.9088   13.0745 O.3     1  UNL1       -0.4740
     35 C          65.5889   96.4942   11.2379 C.3     1  UNL1        0.0523
     36 C          66.3964   95.2922   11.6294 C.3     1  UNL1        0.1891
     37 C          67.0820   94.4737   10.5759 C.ar    1  UNL1        0.0278
     38 C          67.3189   93.0095   10.7998 C.ar    1  UNL1        0.0000
     39 C          68.0045   92.1909    9.7464 C.ar    1  UNL1       -0.0002
     40 C          68.4533   92.8365    8.4690 C.ar    1  UNL1        0.0008
     41 C          68.2165   94.3006    8.2451 C.ar    1  UNL1        0.0112
     42 C          67.5309   95.1193    9.2986 C.ar    1  UNL1        0.0570
     43 CL         67.2941   96.5834    9.0746 Cl      1  UNL1       -0.0825
@<TRIPOS>BOND
     1    36    35    1
     2    36    34    1
     3    34    24    1
     4    24    25   ar
     5    25    26   ar
     6    26     1    1
     7     1     2   ar
     8     2     3   ar
     9     3     4   ar
    10     4     5   ar
    11     5     6   ar
    12     6    10    1
    13    10    11   ar
    14    11    12   ar
    15    12    13   ar
    16    13    14   ar
    17    14    16    1
    18    16    18    1
    19    18    19    1
    20    19    20    1
    21    20    21    1
    22    20    22    2
    23    20    23    2
    24    14    15   ar
    25     6     7   ar
    26     7     8   ar
    27     8     9   ar
    28    26    27   ar
    29    27    28   ar
    30    28    29    1
    31    29    30   am
    32    29    31    2
    33    36    37    1
    34    37    38   ar
    35    38    39   ar
    36    39    40   ar
    37    40    41   ar
    38    41    42   ar
    39    42    43    1
    40    28    24   ar
    41    42    37   ar
    42     9     1   ar
    43     9     4   ar
    44    15    10   ar
    45    16    17    1
    46    30    32    1
    47    30    33    1
@<TRIPOS>MOLECULE
*****
 43 47 0 0 0
SMALL
GASTEIGER

@<TRIPOS>ATOM
      1 N          59.1377   90.5678    5.8063 N.ar    1  UNL1       -0.2823
      2 C          57.7265   91.0459    5.6336 C.ar    1  UNL1        0.1831
      3 N          57.6971   91.9930    4.4707 N.ar    1  UNL1       -0.2236
      4 C          59.0902   92.1002    3.9249 C.ar    1  UNL1        0.0991
      5 C          59.6629   92.8860    2.7828 C.ar    1  UNL1        0.0206
      6 C          61.1260   92.7911    2.4662 C.ar    1  UNL1        0.0017
      7 C          62.0164   91.9102    3.2917 C.ar    1  UNL1        0.0016
      8 C          61.4436   91.1244    4.4337 C.ar    1  UNL1        0.0191
      9 C          59.9805   91.2193    4.7503 C.ar    1  UNL1        0.0835
     10 C          61.6988   93.5770    1.3241 C.ar    1  UNL1        0.0044
     11 C          62.8613   94.4964    1.5548 C.ar    1  UNL1        0.0208
     12 C          63.4341   95.2823    0.4128 C.ar    1  UNL1        0.1003
     13 N          62.8445   95.1487   -0.9600 N.ar    1  UNL1       -0.2294
     14 C          61.6820   94.2293   -1.1907 C.ar    1  UNL1        0.1285
     15 C          61.1091   93.4434   -0.0486 C.ar    1  UNL1        0.0341
     16 N          61.0923   94.0957   -2.5634 N.pl3   1  UNL1       -0.3166
     17 H          61.3702   93.3543   -3.1485 H       1  UNL1        0.1482
     18 C          60.0792   95.0917   -3.0446 C.3     1  UNL1        0.1138
     19 C          58.6234   94.7306   -3.0652 C.3     1  UNL1        0.1720
     20 S          58.0957   93.6889   -2.1239 S.O2    1  UNL1       -0.0065
     21 C          57.5680   92.6471   -1.1825 C.3     1  UNL1        0.1761
     22 O          58.4856   92.6140   -3.0948 O.2     1  UNL1       -0.1729
     23 O          57.7059   94.7637   -1.1530 O.2     1  UNL1       -0.1729
     24 C          60.4989   88.7010    8.9253 C.ar    1  UNL1        0.1512
     25 C          60.1215   89.9690    8.2185 C.ar    1  UNL1        0.0619
     26 C          59.6213   89.6068    6.8517 C.ar    1  UNL1        0.0987
     27 S          59.6896   88.1147    6.7135 S.2     1  UNL1       -0.0618
     28 C          60.2320   87.5549    7.9951 C.ar    1  UNL1        0.1178
     29 C          60.4663   86.1037    8.2939 C.2     1  UNL1        0.2518
     30 N          61.0116   85.6915    9.6291 N.am    1  UNL1       -0.3248
     31 O          60.1553   85.0648    7.2576 O.2     1  UNL1       -0.2697
     32 H          61.2157   86.3733   10.3093 H       1  UNL1        0.1453
     33 H          61.1654   84.7390    9.8253 H       1  UNL1        0.1453
     34 O          61.0470   88.5971   10.3176 O.3     1  UNL1       -0.4740
     35 C          59.8765   90.2975   11.8952 C.3     1  UNL1        0.0523
     36 C          61.1101   89.8146   11.1916 C.3     1  UNL1        0.1891
     37 C          62.4068   90.5492   11.3619 C.ar    1  UNL1        0.0278
     38 C          63.0030   91.2962   10.2058 C.ar    1  UNL1        0.0000
     39 C          64.2997   92.0308   10.3761 C.ar    1  UNL1       -0.0002
     40 C          65.0002   92.0183   11.7025 C.ar    1  UNL1        0.0008
     41 C          64.4040   91.2713   12.8585 C.ar    1  UNL1        0.0112
     42 C          63.1072   90.5367   12.6882 C.ar    1  UNL1        0.0570
     43 CL         62.5111   89.7897   13.8442 Cl      1  UNL1       -0.0825
@<TRIPOS>BOND
     1    36    35    1
     2    36    34    1
     3    34    24    1
     4    24    25   ar
     5    25    26   ar
     6    26     1    1
     7     1     2   ar
     8     2     3   ar
     9     3     4   ar
    10     4     5   ar
    11     5     6   ar
    12     6    10    1
    13    10    11   ar
    14    11    12   ar
    15    12    13   ar
    16    13    14   ar
    17    14    16    1
    18    16    18    1
    19    18    19    1
    20    19    20    1
    21    20    21    1
    22    20    22    2
    23    20    23    2
    24    14    15   ar
    25     6     7   ar
    26     7     8   ar
    27     8     9   ar
    28    26    27   ar
    29    27    28   ar
    30    28    29    1
    31    29    30   am
    32    29    31    2
    33    36    37    1
    34    37    38   ar
    35    38    39   ar
    36    39    40   ar
    37    40    41   ar
    38    41    42   ar
    39    42    43    1
    40    28    24   ar
    41    42    37   ar
    42     9     1   ar
    43     9     4   ar
    44    15    10   ar
    45    16    17    1
    46    30    32    1
    47    30    33    1
@<TRIPOS>MOLECULE
*****
 43 47 0 0 0
SMALL
GASTEIGER

@<TRIPOS>ATOM
      1 N          59.1355   90.2133    6.2661 N.ar    1  UNL1       -0.2823
      2 C          57.6946   90.5424    6.0100 C.ar    1  UNL1        0.1831
      3 N          57.6275   91.4108    4.7888 N.ar    1  UNL1       -0.2236
      4 C          59.0269   91.6184    4.2901 C.ar    1  UNL1        0.0991
      5 C          59.5728   92.3857    3.1226 C.ar    1  UNL1        0.0206
      6 C          61.0508   92.4129    2.8681 C.ar    1  UNL1        0.0017
      7 C          61.9828   91.6728    3.7811 C.ar    1  UNL1        0.0016
      8 C          61.4368   90.9055    4.9486 C.ar    1  UNL1        0.0191
      9 C          59.9589   90.8783    5.2031 C.ar    1  UNL1        0.0835
     10 C          61.5968   93.1802    1.7006 C.ar    1  UNL1        0.0044
     11 C          63.0288   93.6270    1.7003 C.ar    1  UNL1        0.0208
     12 C          63.5748   94.3943    0.5328 C.ar    1  UNL1        0.1003
     13 N          62.6889   94.7149   -0.6344 N.ar    1  UNL1       -0.2294
     14 C          61.2570   94.2682   -0.6342 C.ar    1  UNL1        0.1285
     15 C          60.7109   93.5008    0.5334 C.ar    1  UNL1        0.0341
     16 N          60.3711   94.5888   -1.8014 N.pl3   1  UNL1       -0.3166
     17 H          60.0232   95.5022   -1.9190 H       1  UNL1        0.1482
     18 C          60.0152   93.5176   -2.7892 C.3     1  UNL1        0.1138
     19 C          58.6490   93.4919   -3.4080 C.3     1  UNL1        0.1720
     20 S          57.5426   92.7207   -2.7514 S.O2    1  UNL1       -0.0065
     21 C          56.4363   91.9496   -2.0948 C.3     1  UNL1        0.1761
     22 O          57.6548   93.5939   -1.5370 O.2     1  UNL1       -0.1729
     23 O          57.4305   91.8475   -3.9658 O.2     1  UNL1       -0.1729
     24 C          60.3641   87.4505    8.6999 C.ar    1  UNL1        0.1512
     25 C          59.7995   87.8742    7.3763 C.ar    1  UNL1        0.0619
     26 C          59.6608   89.3676    7.3881 C.ar    1  UNL1        0.0987
     27 S          60.1397   89.8671    8.7190 S.2     1  UNL1       -0.0618
     28 C          60.5743   88.6823    9.5297 C.ar    1  UNL1        0.1178
     29 C          61.1229   88.7222   10.9253 C.2     1  UNL1        0.2518
     30 N          62.5867   88.9612   11.1492 N.am    1  UNL1       -0.3248
     31 O          60.2076   88.5231   12.0969 O.2     1  UNL1       -0.2697
     32 H          63.1874   89.0919   10.3802 H       1  UNL1        0.1453
     33 H          62.9467   88.9874   12.0651 H       1  UNL1        0.1453
     34 O          60.6655   86.0425    9.1198 O.3     1  UNL1       -0.4740
     35 C          63.0566   85.7350    8.1511 C.3     1  UNL1        0.0523
     36 C          62.0883   85.5984    9.2886 C.3     1  UNL1        0.1891
     37 C          62.5428   85.0177   10.5948 C.ar    1  UNL1        0.0278
     38 C          62.0561   85.6049   11.8864 C.ar    1  UNL1        0.0000
     39 C          62.5106   85.0242   13.1927 C.ar    1  UNL1       -0.0002
     40 C          63.4518   83.8564   13.2072 C.ar    1  UNL1        0.0008
     41 C          63.9386   83.2692   11.9157 C.ar    1  UNL1        0.0112
     42 C          63.4841   83.8499   10.6094 C.ar    1  UNL1        0.0570
     43 CL         63.9708   83.2628    9.3178 Cl      1  UNL1       -0.0825
@<TRIPOS>BOND
     1    36    35    1
     2    36    34    1
     3    34    24    1
     4    24    25   ar
     5    25    26   ar
     6    26     1    1
     7     1     2   ar
     8     2     3   ar
     9     3     4   ar
    10     4     5   ar
    11     5     6   ar
    12     6    10    1
    13    10    11   ar
    14    11    12   ar
    15    12    13   ar
    16    13    14   ar
    17    14    16    1
    18    16    18    1
    19    18    19    1
    20    19    20    1
    21    20    21    1
    22    20    22    2
    23    20    23    2
    24    14    15   ar
    25     6     7   ar
    26     7     8   ar
    27     8     9   ar
    28    26    27   ar
    29    27    28   ar
    30    28    29    1
    31    29    30   am
    32    29    31    2
    33    36    37    1
    34    37    38   ar
    35    38    39   ar
    36    39    40   ar
    37    40    41   ar
    38    41    42   ar
    39    42    43    1
    40    28    24   ar
    41    42    37   ar
    42     9     1   ar
    43     9     4   ar
    44    15    10   ar
    45    16    17    1
    46    30    32    1
    47    30    33    1
@<TRIPOS>MOLECULE
*****
 43 47 0 0 0
SMALL
GASTEIGER

@<TRIPOS>ATOM
      1 N          59.8940   88.3827    7.5243 N.ar    1  UNL1       -0.2823
      2 C          59.1106   87.1040    7.4892 C.ar    1  UNL1        0.1831
      3 N          59.5201   86.2769    8.6717 N.ar    1  UNL1       -0.2236
      4 C          60.5566   87.0445    9.4376 C.ar    1  UNL1        0.0991
      5 C          61.3198   86.7264   10.6892 C.ar    1  UNL1        0.0206
      6 C          62.3140   87.7099   11.2316 C.ar    1  UNL1        0.0017
      7 C          62.5451   89.0113   10.5224 C.ar    1  UNL1        0.0016
      8 C          61.7820   89.3293    9.2709 C.ar    1  UNL1        0.0191
      9 C          60.7877   88.3459    8.7285 C.ar    1  UNL1        0.0835
     10 C          63.0773   87.3919   12.4832 C.ar    1  UNL1        0.0044
     11 C          63.6481   88.5013   13.3158 C.ar    1  UNL1        0.0208
     12 C          64.4113   88.1834   14.5673 C.ar    1  UNL1        0.1003
     13 N          64.6037   86.7560   14.9863 N.ar    1  UNL1       -0.2294
     14 C          64.0329   85.6465   14.1537 C.ar    1  UNL1        0.1285
     15 C          63.2697   85.9645   12.9021 C.ar    1  UNL1        0.0341
     16 N          64.2254   84.2191   14.5725 N.pl3   1  UNL1       -0.3166
     17 H          65.0673   83.7539   14.3631 H       1  UNL1        0.1482
     18 C          63.1349   83.5006   15.3105 C.3     1  UNL1        0.1138
     19 C          62.1657   82.6355   14.5606 C.3     1  UNL1        0.1720
     20 S          62.6526   81.7518   13.4507 S.O2    1  UNL1       -0.0065
     21 C          63.1395   80.8680   12.3408 C.3     1  UNL1        0.1761
     22 O          62.4074   82.8551   12.4646 O.2     1  UNL1       -0.1729
     23 O          62.8978   80.6484   14.4367 O.2     1  UNL1       -0.1729
     24 C          60.4042   91.2746    4.9862 C.ar    1  UNL1        0.1512
     25 C          60.9556   90.2418    5.9238 C.ar    1  UNL1        0.0619
     26 C          59.8003   89.5017    6.5298 C.ar    1  UNL1        0.0987
     27 S          58.5346   90.0770    5.9668 S.2     1  UNL1       -0.0618
     28 C          58.9078   91.1728    5.0128 C.ar    1  UNL1        0.1178
     29 C          57.9524   92.0183    4.2238 C.2     1  UNL1        0.2518
     30 N          58.3691   92.5825    2.8979 N.am    1  UNL1       -0.3248
     31 O          56.5803   92.2994    4.7607 O.2     1  UNL1       -0.2697
     32 H          59.2696   92.3979    2.5455 H       1  UNL1        0.1453
     33 H          57.7420   93.1374    2.3801 H       1  UNL1        0.1453
     34 O          61.2078   92.2398    4.1661 O.3     1  UNL1       -0.4740
     35 C          63.0923   90.6312    3.3845 C.3     1  UNL1        0.0523
     36 C          62.1170   91.7313    3.0869 C.3     1  UNL1        0.1891
     37 C          62.0509   92.3229    1.7101 C.ar    1  UNL1        0.0278
     38 C          60.9992   91.8615    0.7452 C.ar    1  UNL1        0.0000
     39 C          60.9331   92.4531   -0.6316 C.ar    1  UNL1       -0.0002
     40 C          61.9187   93.5061   -1.0435 C.ar    1  UNL1        0.0008
     41 C          62.9704   93.9675   -0.0787 C.ar    1  UNL1        0.0112
     42 C          63.0365   93.3759    1.2982 C.ar    1  UNL1        0.0570
     43 CL         64.0882   93.8373    2.2630 Cl      1  UNL1       -0.0825
@<TRIPOS>BOND
     1    36    35    1
     2    36    34    1
     3    34    24    1
     4    24    25   ar
     5    25    26   ar
     6    26     1    1
     7     1     2   ar
     8     2     3   ar
     9     3     4   ar
    10     4     5   ar
    11     5     6   ar
    12     6    10    1
    13    10    11   ar
    14    11    12   ar
    15    12    13   ar
    16    13    14   ar
    17    14    16    1
    18    16    18    1
    19    18    19    1
    20    19    20    1
    21    20    21    1
    22    20    22    2
    23    20    23    2
    24    14    15   ar
    25     6     7   ar
    26     7     8   ar
    27     8     9   ar
    28    26    27   ar
    29    27    28   ar
    30    28    29    1
    31    29    30   am
    32    29    31    2
    33    36    37    1
    34    37    38   ar
    35    38    39   ar
    36    39    40   ar
    37    40    41   ar
    38    41    42   ar
    39    42    43    1
    40    28    24   ar
    41    42    37   ar
    42     9     1   ar
    43     9     4   ar
    44    15    10   ar
    45    16    17    1
    46    30    32    1
    47    30    33    1
@<TRIPOS>MOLECULE
*****
 43 47 0 0 0
SMALL
GASTEIGER

@<TRIPOS>ATOM
      1 N          62.0159   87.2983   10.6227 N.ar    1  UNL1       -0.2823
      2 C          62.4883   88.4785   11.4188 C.ar    1  UNL1        0.1831
      3 N          61.9820   89.7217   10.7493 N.ar    1  UNL1       -0.2236
      4 C          61.1967   89.3098    9.5395 C.ar    1  UNL1        0.0991
      5 C          60.4653   90.1050    8.4991 C.ar    1  UNL1        0.0206
      6 C          59.7548   89.4025    7.3803 C.ar    1  UNL1        0.0017
      7 C          59.7758   87.9047    7.3021 C.ar    1  UNL1        0.0016
      8 C          60.5072   87.1094    8.3425 C.ar    1  UNL1        0.0191
      9 C          61.2177   87.8120    9.4612 C.ar    1  UNL1        0.0835
     10 C          59.0234   90.1977    6.3398 C.ar    1  UNL1        0.0044
     11 C          57.5392   90.0448    6.1851 C.ar    1  UNL1        0.0208
     12 C          56.8078   90.8400    5.1446 C.ar    1  UNL1        0.1003
     13 N          57.5605   91.7881    4.2588 N.ar    1  UNL1       -0.2294
     14 C          59.0446   91.9411    4.4136 C.ar    1  UNL1        0.1285
     15 C          59.7761   91.1458    5.4541 C.ar    1  UNL1        0.0341
     16 N          59.7973   92.8892    3.5279 N.pl3   1  UNL1       -0.3166
     17 H          60.4280   93.5348    3.9213 H       1  UNL1        0.1482
     18 C          59.5890   92.8538    2.0429 C.3     1  UNL1        0.1138
     19 C          60.7705   92.8796    1.1190 C.3     1  UNL1        0.1720
     20 S          62.1362   93.1891    1.6564 S.O2    1  UNL1       -0.0065
     21 C          63.5019   93.4986    2.1939 C.3     1  UNL1        0.1761
     22 O          62.4041   91.7224    1.8202 O.2     1  UNL1       -0.1729
     23 O          61.8683   94.6558    1.4927 O.2     1  UNL1       -0.1729
     24 C          62.3665   83.7135   12.0692 C.ar    1  UNL1        0.1512
     25 C          61.8847   85.1297   12.1800 C.ar    1  UNL1        0.0619
     26 C          62.2930   85.8572   10.9335 C.ar    1  UNL1        0.0987
     27 S          63.0272   84.8906   10.0521 S.2     1  UNL1       -0.0618
     28 C          63.0726   83.5658   10.7540 C.ar    1  UNL1        0.1178
     29 C          63.7119   82.3130   10.2324 C.2     1  UNL1        0.2518
     30 N          63.0684   80.9817   10.4842 N.am    1  UNL1       -0.3248
     31 O          64.9947   82.3917    9.4589 O.2     1  UNL1       -0.2697
     32 H          62.2264   80.9301   10.9918 H       1  UNL1        0.1453
     33 H          63.4879   80.1595   10.1418 H       1  UNL1        0.1453
     34 O          62.1757   82.6346   13.0936 O.3     1  UNL1       -0.4740
     35 C          63.6019   81.3914   14.8741 C.3     1  UNL1        0.0523
     36 C          62.9760   82.6548   14.3621 C.3     1  UNL1        0.1891
     37 C          63.1503   83.9383   15.1186 C.ar    1  UNL1        0.0278
     38 C          62.1142   84.3687   16.1142 C.ar    1  UNL1        0.0000
     39 C          62.2885   85.6522   16.8706 C.ar    1  UNL1       -0.0002
     40 C          63.4989   86.5052   16.6315 C.ar    1  UNL1        0.0008
     41 C          64.5350   86.0748   15.6360 C.ar    1  UNL1        0.0112
     42 C          64.3607   84.7913   14.8795 C.ar    1  UNL1        0.0570
     43 CL         65.3968   84.3609   13.8839 Cl      1  UNL1       -0.0825
@<TRIPOS>BOND
     1    36    35    1
     2    36    34    1
     3    34    24    1
     4    24    25   ar
     5    25    26   ar
     6    26     1    1
     7     1     2   ar
     8     2     3   ar
     9     3     4   ar
    10     4     5   ar
    11     5     6   ar
    12     6    10    1
    13    10    11   ar
    14    11    12   ar
    15    12    13   ar
    16    13    14   ar
    17    14    16    1
    18    16    18    1
    19    18    19    1
    20    19    20    1
    21    20    21    1
    22    20    22    2
    23    20    23    2
    24    14    15   ar
    25     6     7   ar
    26     7     8   ar
    27     8     9   ar
    28    26    27   ar
    29    27    28   ar
    30    28    29    1
    31    29    30   am
    32    29    31    2
    33    36    37    1
    34    37    38   ar
    35    38    39   ar
    36    39    40   ar
    37    40    41   ar
    38    41    42   ar
    39    42    43    1
    40    28    24   ar
    41    42    37   ar
    42     9     1   ar
    43     9     4   ar
    44    15    10   ar
    45    16    17    1
    46    30    32    1
    47    30    33    1
@<TRIPOS>MOLECULE
*****
 43 47 0 0 0
SMALL
GASTEIGER

@<TRIPOS>ATOM
      1 N          63.2544   93.7754   -0.3001 N.ar    1  UNL1       -0.2823
      2 C          64.5603   93.6085    0.4186 C.ar    1  UNL1        0.1831
      3 N          64.2737   93.0290    1.7721 N.ar    1  UNL1       -0.2236
      4 C          62.7906   92.8378    1.8899 C.ar    1  UNL1        0.0991
      5 C          61.9325   92.3032    2.9980 C.ar    1  UNL1        0.0206
      6 C          60.4443   92.2299    2.8252 C.ar    1  UNL1        0.0017
      7 C          59.8143   92.6912    1.5445 C.ar    1  UNL1        0.0016
      8 C          60.6724   93.2257    0.4365 C.ar    1  UNL1        0.0191
      9 C          62.1606   93.2990    0.6092 C.ar    1  UNL1        0.0835
     10 C          59.5860   91.6953    3.9333 C.ar    1  UNL1        0.0044
     11 C          58.1227   92.0226    3.9730 C.ar    1  UNL1        0.0208
     12 C          57.2644   91.4881    5.0810 C.ar    1  UNL1        0.1003
     13 N          57.8695   90.6262    6.1493 N.ar    1  UNL1       -0.2294
     14 C          59.3328   90.2989    6.1095 C.ar    1  UNL1        0.1285
     15 C          60.1911   90.8335    5.0014 C.ar    1  UNL1        0.0341
     16 N          59.9379   89.4370    7.1777 N.pl3   1  UNL1       -0.3166
     17 H          60.7696   89.7172    7.6238 H       1  UNL1        0.1482
     18 C          59.2757   88.1484    7.5662 C.3     1  UNL1        0.1138
     19 C          59.7311   87.4104    8.7901 C.3     1  UNL1        0.1720
     20 S          60.9288   87.8919    9.5540 S.O2    1  UNL1       -0.0065
     21 C          62.1265   88.3734   10.3180 C.3     1  UNL1        0.1761
     22 O          60.0977   88.9760   10.1736 O.2     1  UNL1       -0.1729
     23 O          61.7598   86.8077    8.9345 O.2     1  UNL1       -0.1729
     24 C          62.1139   94.8542   -3.8500 C.ar    1  UNL1        0.1512
     25 C          61.8642   94.1422   -2.5536 C.ar    1  UNL1        0.0619
     26 C          63.0738   94.3225   -1.6851 C.ar    1  UNL1        0.0987
     27 S          64.0712   95.1461   -2.4446 S.2     1  UNL1       -0.0618
     28 C          63.4780   95.4747   -3.7826 C.ar    1  UNL1        0.1178
     29 C          64.1337   96.2821   -4.8635 C.2     1  UNL1        0.2518
     30 N          63.3085   96.8531   -5.9784 N.am    1  UNL1       -0.3248
     31 O          65.6145   96.5185   -4.8294 O.2     1  UNL1       -0.2697
     32 H          62.3366   96.6979   -6.0008 H       1  UNL1        0.1453
     33 H          63.7389   97.3830   -6.6878 H       1  UNL1        0.1453
     34 O          61.1662   94.9322   -5.0099 O.3     1  UNL1       -0.4740
     35 C          59.2272   96.5725   -5.5575 C.3     1  UNL1        0.0523
     36 C          59.7549   95.3930   -4.7957 C.3     1  UNL1        0.1891
     37 C          58.8713   94.6743   -3.8196 C.ar    1  UNL1        0.0278
     38 C          58.2865   93.3404   -4.1786 C.ar    1  UNL1        0.0000
     39 C          57.4029   92.6217   -3.2026 C.ar    1  UNL1       -0.0002
     40 C          57.1040   93.2369   -1.8676 C.ar    1  UNL1        0.0008
     41 C          57.6887   94.5707   -1.5086 C.ar    1  UNL1        0.0112
     42 C          58.5723   95.2895   -2.4847 C.ar    1  UNL1        0.0570
     43 CL         59.1570   96.6233   -2.1257 Cl      1  UNL1       -0.0825
@<TRIPOS>BOND
     1    36    35    1
     2    36    34    1
     3    34    24    1
     4    24    25   ar
     5    25    26   ar
     6    26     1    1
     7     1     2   ar
     8     2     3   ar
     9     3     4   ar
    10     4     5   ar
    11     5     6   ar
    12     6    10    1
    13    10    11   ar
    14    11    12   ar
    15    12    13   ar
    16    13    14   ar
    17    14    16    1
    18    16    18    1
    19    18    19    1
    20    19    20    1
    21    20    21    1
    22    20    22    2
    23    20    23    2
    24    14    15   ar
    25     6     7   ar
    26     7     8   ar
    27     8     9   ar
    28    26    27   ar
    29    27    28   ar
    30    28    29    1
    31    29    30   am
    32    29    31    2
    33    36    37    1
    34    37    38   ar
    35    38    39   ar
    36    39    40   ar
    37    40    41   ar
    38    41    42   ar
    39    42    43    1
    40    28    24   ar
    41    42    37   ar
    42     9     1   ar
    43     9     4   ar
    44    15    10   ar
    45    16    17    1
    46    30    32    1
    47    30    33    1
@<TRIPOS>MOLECULE
*****
 43 47 0 0 0
SMALL
GASTEIGER

@<TRIPOS>ATOM
      1 N          60.0512   88.4899    7.7699 N.ar    1  UNL1       -0.2823
      2 C          59.7884   87.0137    7.7286 C.ar    1  UNL1        0.1831
      3 N          60.4612   86.3898    8.9152 N.ar    1  UNL1       -0.2236
      4 C          61.1398   87.4803    9.6899 C.ar    1  UNL1        0.0991
      5 C          61.9557   87.4591   10.9483 C.ar    1  UNL1        0.0206
      6 C          62.5183   88.7360   11.4990 C.ar    1  UNL1        0.0017
      7 C          62.2649   90.0339   10.7911 C.ar    1  UNL1        0.0016
      8 C          61.4490   90.0551    9.5327 C.ar    1  UNL1        0.0191
      9 C          60.8865   88.7783    8.9820 C.ar    1  UNL1        0.0835
     10 C          63.3342   88.7148   12.7575 C.ar    1  UNL1        0.0044
     11 C          63.6527   87.4088   13.4230 C.ar    1  UNL1        0.0208
     12 C          64.4686   87.3876   14.6815 C.ar    1  UNL1        0.1003
     13 N          64.9661   88.6725   15.2745 N.ar    1  UNL1       -0.2294
     14 C          64.6477   89.9785   14.6090 C.ar    1  UNL1        0.1285
     15 C          63.8317   89.9997   13.3505 C.ar    1  UNL1        0.0341
     16 N          65.1451   91.2634   15.2020 N.pl3   1  UNL1       -0.3166
     17 H          64.5448   91.8164   15.7525 H       1  UNL1        0.1482
     18 C          66.5572   91.7056   14.9562 C.3     1  UNL1        0.1138
     19 C          66.8341   92.8463   14.0222 C.3     1  UNL1        0.1720
     20 S          66.7380   92.6419   12.5394 S.O2    1  UNL1       -0.0065
     21 C          66.6419   92.4374   11.0565 C.3     1  UNL1        0.1761
     22 O          65.3379   93.1798   12.5559 O.2     1  UNL1       -0.1729
     23 O          68.1381   92.1039   12.5228 O.2     1  UNL1       -0.1729
     24 C          59.5232   91.2596    5.1023 C.ar    1  UNL1        0.1512
     25 C          60.4239   90.4248    5.9637 C.ar    1  UNL1        0.0619
     26 C          59.5644   89.5004    6.7739 C.ar    1  UNL1        0.0987
     27 S          58.1323   89.7638    6.4134 S.2     1  UNL1       -0.0618
     28 C          58.1069   90.8510    5.3803 C.ar    1  UNL1        0.1178
     29 C          56.8805   91.4284    4.7379 C.2     1  UNL1        0.2518
     30 N          57.0040   92.2499    3.4890 N.am    1  UNL1       -0.3248
     31 O          55.5305   91.1841    5.3445 O.2     1  UNL1       -0.2697
     32 H          57.8901   92.4103    3.0910 H       1  UNL1        0.1453
     33 H          56.1991   92.6288    3.0675 H       1  UNL1        0.1453
     34 O          59.9617   92.3171    4.1333 O.3     1  UNL1       -0.4740
     35 C          62.2816   91.2306    3.7000 C.3     1  UNL1        0.0523
     36 C          61.1289   92.0651    3.2255 C.3     1  UNL1        0.1891
     37 C          61.1435   92.6474    1.8432 C.ar    1  UNL1        0.0278
     38 C          59.9445   92.4989    0.9542 C.ar    1  UNL1        0.0000
     39 C          59.9590   93.0812   -0.4281 C.ar    1  UNL1       -0.0002
     40 C          61.1725   93.8121   -0.9213 C.ar    1  UNL1        0.0008
     41 C          62.3714   93.9607   -0.0322 C.ar    1  UNL1        0.0112
     42 C          62.3569   93.3783    1.3501 C.ar    1  UNL1        0.0570
     43 CL         63.5558   93.5269    2.2391 Cl      1  UNL1       -0.0825
@<TRIPOS>BOND
     1    36    35    1
     2    36    34    1
     3    34    24    1
     4    24    25   ar
     5    25    26   ar
     6    26     1    1
     7     1     2   ar
     8     2     3   ar
     9     3     4   ar
    10     4     5   ar
    11     5     6   ar
    12     6    10    1
    13    10    11   ar
    14    11    12   ar
    15    12    13   ar
    16    13    14   ar
    17    14    16    1
    18    16    18    1
    19    18    19    1
    20    19    20    1
    21    20    21    1
    22    20    22    2
    23    20    23    2
    24    14    15   ar
    25     6     7   ar
    26     7     8   ar
    27     8     9   ar
    28    26    27   ar
    29    27    28   ar
    30    28    29    1
    31    29    30   am
    32    29    31    2
    33    36    37    1
    34    37    38   ar
    35    38    39   ar
    36    39    40   ar
    37    40    41   ar
    38    41    42   ar
    39    42    43    1
    40    28    24   ar
    41    42    37   ar
    42     9     1   ar
    43     9     4   ar
    44    15    10   ar
    45    16    17    1
    46    30    32    1
    47    30    33    1
@<TRIPOS>MOLECULE
*****
 43 47 0 0 0
SMALL
GASTEIGER

@<TRIPOS>ATOM
      1 N          63.9226   90.6410   13.2710 N.ar    1  UNL1       -0.2823
      2 C          63.1071   90.2473   14.4668 C.ar    1  UNL1        0.1831
      3 N          61.8554   89.5825   13.9758 N.ar    1  UNL1       -0.2236
      4 C          61.8972   89.5654   12.4764 C.ar    1  UNL1        0.0991
      5 C          60.9369   89.0386   11.4516 C.ar    1  UNL1        0.0206
      6 C          61.2543   89.1659    9.9911 C.ar    1  UNL1        0.0017
      7 C          62.5319   89.8201    9.5555 C.ar    1  UNL1        0.0016
      8 C          63.4922   90.3469   10.5804 C.ar    1  UNL1        0.0191
      9 C          63.1748   90.2195   12.0409 C.ar    1  UNL1        0.0835
     10 C          60.2941   88.6391    8.9662 C.ar    1  UNL1        0.0044
     11 C          59.9923   87.1710    8.9059 C.ar    1  UNL1        0.0208
     12 C          59.0321   86.6442    7.8810 C.ar    1  UNL1        0.1003
     13 N          58.3736   87.5854    6.9163 N.ar    1  UNL1       -0.2294
     14 C          58.6754   89.0535    6.9766 C.ar    1  UNL1        0.1285
     15 C          59.6356   89.5804    8.0016 C.ar    1  UNL1        0.0341
     16 N          58.0170   89.9948    6.0121 N.pl3   1  UNL1       -0.3166
     17 H          57.1122   89.8014    5.6754 H       1  UNL1        0.1482
     18 C          58.7370   91.2307    5.5604 C.3     1  UNL1        0.1138
     19 C          60.0682   91.1163    4.8786 C.3     1  UNL1        0.1720
     20 S          60.4228   92.0547    3.7634 S.O2    1  UNL1       -0.0065
     21 C          60.7774   92.9931    2.6483 C.3     1  UNL1        0.1761
     22 O          58.9743   92.4087    3.6007 O.2     1  UNL1       -0.1729
     23 O          61.8713   91.7007    3.9261 O.2     1  UNL1       -0.1729
     24 C          67.3197   92.3928   12.5953 C.ar    1  UNL1        0.1512
     25 C          66.0679   91.7280   12.1043 C.ar    1  UNL1        0.0619
     26 C          65.2523   91.3344   13.3001 C.ar    1  UNL1        0.0987
     27 S          66.0000   91.7561   14.5302 S.2     1  UNL1       -0.0618
     28 C          67.2777   92.4102   14.0946 C.ar    1  UNL1        0.1178
     29 C          68.3289   92.9814   14.9995 C.2     1  UNL1        0.2518
     30 N          69.7779   92.6912   14.7427 N.am    1  UNL1       -0.3248
     31 O          67.9309   93.8429   16.1613 O.2     1  UNL1       -0.2697
     32 H          70.0391   92.1258   13.9803 H       1  UNL1        0.1453
     33 H          70.4678   93.0661   15.3367 H       1  UNL1        0.1453
     34 O          68.4201   92.9436   11.7376 O.3     1  UNL1       -0.4740
     35 C          68.7525   92.5765    9.1872 C.3     1  UNL1        0.0523
     36 C          68.1372   93.3436   10.3199 C.3     1  UNL1        0.1891
     37 C          67.2390   94.5106   10.0349 C.ar    1  UNL1        0.0278
     38 C          66.4919   95.1730   11.1543 C.ar    1  UNL1        0.0000
     39 C          65.5937   96.3401   10.8693 C.ar    1  UNL1       -0.0002
     40 C          65.4427   96.8448    9.4648 C.ar    1  UNL1        0.0008
     41 C          66.1898   96.1825    8.3455 C.ar    1  UNL1        0.0112
     42 C          67.0880   95.0153    8.6305 C.ar    1  UNL1        0.0570
     43 CL         67.8351   94.3530    7.5111 Cl      1  UNL1       -0.0825
@<TRIPOS>BOND
     1    36    35    1
     2    36    34    1
     3    34    24    1
     4    24    25   ar
     5    25    26   ar
     6    26     1    1
     7     1     2   ar
     8     2     3   ar
     9     3     4   ar
    10     4     5   ar
    11     5     6   ar
    12     6    10    1
    13    10    11   ar
    14    11    12   ar
    15    12    13   ar
    16    13    14   ar
    17    14    16    1
    18    16    18    1
    19    18    19    1
    20    19    20    1
    21    20    21    1
    22    20    22    2
    23    20    23    2
    24    14    15   ar
    25     6     7   ar
    26     7     8   ar
    27     8     9   ar
    28    26    27   ar
    29    27    28   ar
    30    28    29    1
    31    29    30   am
    32    29    31    2
    33    36    37    1
    34    37    38   ar
    35    38    39   ar
    36    39    40   ar
    37    40    41   ar
    38    41    42   ar
    39    42    43    1
    40    28    24   ar
    41    42    37   ar
    42     9     1   ar
    43     9     4   ar
    44    15    10   ar
    45    16    17    1
    46    30    32    1
    47    30    33    1
