@<TRIPOS>MOLECULE
*****
 25 28 0 0 0
SMALL
GASTEIGER

@<TRIPOS>ATOM
      1 C          63.0406   85.6786   12.7072 C.ar    1  UNL1       -0.0002
      2 C          63.7577   86.4321   13.7879 C.ar    1  UNL1       -0.0000
      3 C          63.9120   87.9208   13.6885 C.ar    1  UNL1       -0.0003
      4 C          63.3493   88.6560   12.5083 C.ar    1  UNL1       -0.0043
      5 C          62.6322   87.9025   11.4276 C.ar    1  UNL1       -0.0218
      6 C          62.4779   86.4138   11.5270 C.ar    1  UNL1       -0.0043
      7 C          62.0695   88.6377   10.2474 C.3     1  UNL1        0.0310
      8 C          62.2238   90.1264   10.1479 C.3     1  UNL1        0.0307
      9 C          62.9409   90.8800   11.2287 C.2     1  UNL1       -0.0258
     10 C          63.5036   90.1448   12.4089 C.2     1  UNL1       -0.0045
     11 O          62.4232   79.7237   13.1047 O.3     1  UNL1       -0.5034
     12 C          62.5776   81.2124   13.0054 C.ar    1  UNL1        0.1610
     13 C          62.4336   82.0648   14.2312 C.ar    1  UNL1        0.0390
     14 C          62.5880   83.5536   14.1318 C.ar    1  UNL1        0.0033
     15 C          62.8863   84.1898   12.8066 C.ar    1  UNL1        0.0024
     16 C          63.0302   83.3374   11.5808 C.ar    1  UNL1        0.0328
     17 C          62.8758   81.8487   11.6801 C.ar    1  UNL1        0.1735
     18 F          63.0198   80.9963   10.4543 F       1  UNL1       -0.2010
     19 H          62.2369   79.3262   13.9325 H       1  UNL1        0.2923
     20 C          64.2207   90.8983   13.4896 C.ar    1  UNL1        0.0028
     21 C          65.4180   91.7363   13.1519 C.ar    1  UNL1        0.0207
     22 C          66.1351   92.4899   14.2327 C.ar    1  UNL1        0.0989
     23 N          65.6548   92.4053   15.6512 N.ar    1  UNL1       -0.2423
     24 C          64.4575   91.5672   15.9889 C.ar    1  UNL1        0.0989
     25 C          63.7405   90.8137   14.9082 C.ar    1  UNL1        0.0207
@<TRIPOS>BOND
     1    11    12    1
     2    12    13   ar
     3    13    14   ar
     4    14    15   ar
     5    15     1    1
     6     1     2   ar
     7     2     3   ar
     8     3     4   ar
     9     4     5   ar
    10     5     6   ar
    11     5     7    1
    12     7     8    1
    13     8     9    1
    14     9    10    2
    15    10    20    1
    16    20    21   ar
    17    21    22   ar
    18    22    23   ar
    19    23    24   ar
    20    24    25   ar
    21    15    16   ar
    22    16    17   ar
    23    17    18    1
    24    17    12   ar
    25     6     1   ar
    26    25    20   ar
    27    10     4    1
    28    11    19    1
@<TRIPOS>MOLECULE
*****
 25 28 0 0 0
SMALL
GASTEIGER

@<TRIPOS>ATOM
      1 C          63.0426   85.6513   12.6646 C.ar    1  UNL1       -0.0002
      2 C          63.7493   86.3967   13.7577 C.ar    1  UNL1       -0.0000
      3 C          63.8987   87.8869   13.6740 C.ar    1  UNL1       -0.0003
      4 C          63.3415   88.6316   12.4972 C.ar    1  UNL1       -0.0043
      5 C          62.6348   87.8862   11.4041 C.ar    1  UNL1       -0.0218
      6 C          62.4853   86.3961   11.4878 C.ar    1  UNL1       -0.0043
      7 C          62.0775   88.6310   10.2273 C.3     1  UNL1        0.0310
      8 C          62.2270   90.1211   10.1436 C.3     1  UNL1        0.0307
      9 C          62.9337   90.8666   11.2368 C.2     1  UNL1       -0.0258
     10 C          63.4909   90.1219   12.4136 C.2     1  UNL1       -0.0045
     11 O          62.4447   79.6905   12.9990 O.3     1  UNL1       -0.5034
     12 C          62.5942   81.1807   12.9154 C.ar    1  UNL1        0.1610
     13 C          62.4171   82.0223   14.1444 C.ar    1  UNL1        0.0390
     14 C          62.5666   83.5125   14.0607 C.ar    1  UNL1        0.0033
     15 C          62.8931   84.1611   12.7482 C.ar    1  UNL1        0.0024
     16 C          63.0702   83.3194   11.5193 C.ar    1  UNL1        0.0328
     17 C          62.9208   81.8292   11.6029 C.ar    1  UNL1        0.1735
     18 F          63.0979   80.9876   10.3739 F       1  UNL1       -0.2010
     19 H          62.2408   79.2854   13.8189 H       1  UNL1        0.2923
     20 C          64.1976   90.8673   13.5067 C.ar    1  UNL1        0.0028
     21 C          63.7007   90.7764   14.9191 C.ar    1  UNL1        0.0207
     22 C          64.4075   91.5218   16.0122 C.ar    1  UNL1        0.0989
     23 N          65.6111   92.3581   15.6929 N.ar    1  UNL1       -0.2423
     24 C          66.1080   92.4490   14.2805 C.ar    1  UNL1        0.0989
     25 C          65.4013   91.7036   13.1874 C.ar    1  UNL1        0.0207
@<TRIPOS>BOND
     1    11    12    1
     2    12    13   ar
     3    13    14   ar
     4    14    15   ar
     5    15     1    1
     6     1     2   ar
     7     2     3   ar
     8     3     4   ar
     9     4     5   ar
    10     5     6   ar
    11     5     7    1
    12     7     8    1
    13     8     9    1
    14     9    10    2
    15    10    20    1
    16    20    21   ar
    17    21    22   ar
    18    22    23   ar
    19    23    24   ar
    20    24    25   ar
    21    15    16   ar
    22    16    17   ar
    23    17    18    1
    24    17    12   ar
    25     6     1   ar
    26    25    20   ar
    27    10     4    1
    28    11    19    1
@<TRIPOS>MOLECULE
*****
 25 28 0 0 0
SMALL
GASTEIGER

@<TRIPOS>ATOM
      1 C          64.3854   88.9764   13.9895 C.ar    1  UNL1       -0.0002
      2 C          64.5794   87.6242   14.6091 C.ar    1  UNL1       -0.0000
      3 C          63.9645   86.4128   13.9734 C.ar    1  UNL1       -0.0003
      4 C          63.1555   86.5535   12.7181 C.ar    1  UNL1       -0.0043
      5 C          62.9614   87.9057   12.0985 C.ar    1  UNL1       -0.0218
      6 C          63.5764   89.1171   12.7342 C.ar    1  UNL1       -0.0043
      7 C          62.1524   88.0464   10.8432 C.3     1  UNL1        0.0310
      8 C          61.5375   86.8349   10.2076 C.3     1  UNL1        0.0307
      9 C          61.7314   85.4827   10.8272 C.2     1  UNL1       -0.0258
     10 C          62.5404   85.3419   12.0825 C.2     1  UNL1       -0.0045
     11 O          66.8455   93.8225   16.5320 O.3     1  UNL1       -0.5034
     12 C          66.2305   92.6110   15.8964 C.ar    1  UNL1        0.1610
     13 C          64.8623   92.1584   16.3128 C.ar    1  UNL1        0.0390
     14 C          64.2473   90.9469   15.6771 C.ar    1  UNL1        0.0033
     15 C          65.0004   90.1880   14.6251 C.ar    1  UNL1        0.0024
     16 C          66.3686   90.6405   14.2087 C.ar    1  UNL1        0.0328
     17 C          66.9836   91.8520   14.8443 C.ar    1  UNL1        0.1735
     18 F          68.3518   92.3045   14.4279 F       1  UNL1       -0.2010
     19 H          66.3750   94.2966   17.1891 H       1  UNL1        0.2923
     20 C          62.7345   83.9898   12.7021 C.ar    1  UNL1        0.0028
     21 C          62.0721   83.6607   14.0070 C.ar    1  UNL1        0.0207
     22 C          62.2661   82.3085   14.6267 C.ar    1  UNL1        0.0989
     23 N          63.1225   81.2854   13.9413 N.ar    1  UNL1       -0.2423
     24 C          63.7849   81.6144   12.6363 C.ar    1  UNL1        0.0989
     25 C          63.5909   82.9666   12.0167 C.ar    1  UNL1        0.0207
@<TRIPOS>BOND
     1    11    12    1
     2    12    13   ar
     3    13    14   ar
     4    14    15   ar
     5    15     1    1
     6     1     2   ar
     7     2     3   ar
     8     3     4   ar
     9     4     5   ar
    10     5     6   ar
    11     5     7    1
    12     7     8    1
    13     8     9    1
    14     9    10    2
    15    10    20    1
    16    20    21   ar
    17    21    22   ar
    18    22    23   ar
    19    23    24   ar
    20    24    25   ar
    21    15    16   ar
    22    16    17   ar
    23    17    18    1
    24    17    12   ar
    25     6     1   ar
    26    25    20   ar
    27    10     4    1
    28    11    19    1
@<TRIPOS>MOLECULE
*****
 25 28 0 0 0
SMALL
GASTEIGER

@<TRIPOS>ATOM
      1 C          63.0533   90.2662   10.9293 C.ar    1  UNL1       -0.0002
      2 C          63.6262   89.9866   12.2871 C.ar    1  UNL1       -0.0000
      3 C          64.6437   90.9170   12.8779 C.ar    1  UNL1       -0.0003
      4 C          65.0882   92.1270   12.1109 C.ar    1  UNL1       -0.0043
      5 C          64.5153   92.4067   10.7532 C.ar    1  UNL1       -0.0218
      6 C          63.4979   91.4763   10.1624 C.ar    1  UNL1       -0.0043
      7 C          64.9599   93.6167    9.9862 C.3     1  UNL1        0.0310
      8 C          65.9773   94.5471   10.5770 C.3     1  UNL1        0.0307
      9 C          66.5503   94.2675   11.9348 C.2     1  UNL1       -0.0258
     10 C          66.1058   93.0575   12.7018 C.2     1  UNL1       -0.0045
     11 O          58.9834   86.5446    8.5660 O.3     1  UNL1       -0.5034
     12 C          60.0008   87.4750    9.1568 C.ar    1  UNL1        0.1610
     13 C          59.9498   88.9405    8.8409 C.ar    1  UNL1        0.0390
     14 C          60.9674   89.8709    9.4318 C.ar    1  UNL1        0.0033
     15 C          62.0358   89.3358   10.3385 C.ar    1  UNL1        0.0024
     16 C          62.0868   87.8703   10.6543 C.ar    1  UNL1        0.0328
     17 C          61.0693   86.9399   10.0635 C.ar    1  UNL1        0.1735
     18 F          61.1203   85.4745   10.3794 F       1  UNL1       -0.2010
     19 H          58.3159   86.8788    7.9996 H       1  UNL1        0.2923
     20 C          66.6787   92.7778   14.0595 C.ar    1  UNL1        0.0028
     21 C          68.1380   92.4640   14.2077 C.ar    1  UNL1        0.0207
     22 C          68.7109   92.1844   15.5655 C.ar    1  UNL1        0.0989
     23 N          67.8245   92.2186   16.7751 N.ar    1  UNL1       -0.2423
     24 C          66.3652   92.5324   16.6269 C.ar    1  UNL1        0.0989
     25 C          65.7923   92.8120   15.2692 C.ar    1  UNL1        0.0207
@<TRIPOS>BOND
     1    11    12    1
     2    12    13   ar
     3    13    14   ar
     4    14    15   ar
     5    15     1    1
     6     1     2   ar
     7     2     3   ar
     8     3     4   ar
     9     4     5   ar
    10     5     6   ar
    11     5     7    1
    12     7     8    1
    13     8     9    1
    14     9    10    2
    15    10    20    1
    16    20    21   ar
    17    21    22   ar
    18    22    23   ar
    19    23    24   ar
    20    24    25   ar
    21    15    16   ar
    22    16    17   ar
    23    17    18    1
    24    17    12   ar
    25     6     1   ar
    26    25    20   ar
    27    10     4    1
    28    11    19    1
@<TRIPOS>MOLECULE
*****
 25 28 0 0 0
SMALL
GASTEIGER

@<TRIPOS>ATOM
      1 C          63.0183   90.1630   10.9272 C.ar    1  UNL1       -0.0002
      2 C          63.5294   89.9117   12.3148 C.ar    1  UNL1       -0.0000
      3 C          64.5191   90.8550   12.9318 C.ar    1  UNL1       -0.0003
      4 C          64.9976   92.0496   12.1612 C.ar    1  UNL1       -0.0043
      5 C          64.4865   92.3010   10.7736 C.ar    1  UNL1       -0.0218
      6 C          63.4968   91.3577   10.1566 C.ar    1  UNL1       -0.0043
      7 C          64.9650   93.4956   10.0030 C.3     1  UNL1        0.0310
      8 C          65.9547   94.4389   10.6200 C.3     1  UNL1        0.0307
      9 C          66.4658   94.1876   12.0077 C.2     1  UNL1       -0.0258
     10 C          65.9873   92.9929   12.7783 C.2     1  UNL1       -0.0045
     11 O          59.0595   86.3900    8.4588 O.3     1  UNL1       -0.5034
     12 C          60.0492   87.3332    9.0759 C.ar    1  UNL1        0.1610
     13 C          60.9820   86.8474   10.1455 C.ar    1  UNL1        0.0390
     14 C          61.9717   87.7908   10.7625 C.ar    1  UNL1        0.0033
     15 C          62.0286   89.2197   10.3101 C.ar    1  UNL1        0.0024
     16 C          61.0958   89.7055    9.2405 C.ar    1  UNL1        0.0328
     17 C          60.1061   88.7622    8.6235 C.ar    1  UNL1        0.1735
     18 F          59.1733   89.2480    7.5539 F       1  UNL1       -0.2010
     19 H          59.0240   85.4973    8.7415 H       1  UNL1        0.2923
     20 C          66.4984   92.7416   14.1659 C.ar    1  UNL1        0.0028
     21 C          67.9676   92.5508   14.4009 C.ar    1  UNL1        0.0207
     22 C          68.4787   92.2995   15.7886 C.ar    1  UNL1        0.0989
     23 N          67.5207   92.2388   16.9412 N.ar    1  UNL1       -0.2423
     24 C          66.0515   92.4296   16.7062 C.ar    1  UNL1        0.0989
     25 C          65.5404   92.6809   15.3186 C.ar    1  UNL1        0.0207
@<TRIPOS>BOND
     1    11    12    1
     2    12    13   ar
     3    13    14   ar
     4    14    15   ar
     5    15     1    1
     6     1     2   ar
     7     2     3   ar
     8     3     4   ar
     9     4     5   ar
    10     5     6   ar
    11     5     7    1
    12     7     8    1
    13     8     9    1
    14     9    10    2
    15    10    20    1
    16    20    21   ar
    17    21    22   ar
    18    22    23   ar
    19    23    24   ar
    20    24    25   ar
    21    15    16   ar
    22    16    17   ar
    23    17    18    1
    24    17    12   ar
    25     6     1   ar
    26    25    20   ar
    27    10     4    1
    28    11    19    1
@<TRIPOS>MOLECULE
*****
 25 28 0 0 0
SMALL
GASTEIGER

@<TRIPOS>ATOM
      1 C          63.1990   84.4568   13.9146 C.ar    1  UNL1       -0.0002
      2 C          63.6293   85.5579   12.9914 C.ar    1  UNL1       -0.0000
      3 C          63.7893   86.9549   13.5136 C.ar    1  UNL1       -0.0003
      4 C          63.5191   87.2508   14.9591 C.ar    1  UNL1       -0.0043
      5 C          63.0888   86.1497   15.8823 C.ar    1  UNL1       -0.0218
      6 C          62.9288   84.7527   15.3601 C.ar    1  UNL1       -0.0043
      7 C          62.8186   86.4456   17.3278 C.3     1  UNL1        0.0310
      8 C          62.9787   87.8425   17.8501 C.3     1  UNL1        0.0307
      9 C          63.4090   88.9437   16.9268 C.2     1  UNL1       -0.0258
     10 C          63.6792   88.6478   15.4813 C.2     1  UNL1       -0.0045
     11 O          62.5586   78.8688   11.8256 O.3     1  UNL1       -0.5034
     12 C          62.7187   80.2657   12.3478 C.ar    1  UNL1        0.1610
     13 C          62.4746   80.5565   13.7990 C.ar    1  UNL1        0.0390
     14 C          62.6347   81.9536   14.3212 C.ar    1  UNL1        0.0033
     15 C          63.0389   83.0598   13.3923 C.ar    1  UNL1        0.0024
     16 C          63.2830   82.7690   11.9412 C.ar    1  UNL1        0.0328
     17 C          63.1229   81.3720   11.4189 C.ar    1  UNL1        0.1735
     18 F          63.3671   81.0813    9.9678 F       1  UNL1       -0.2010
     19 H          62.3061   78.1777   12.4058 H       1  UNL1        0.2923
     20 C          64.1095   89.7489   14.5581 C.ar    1  UNL1        0.0028
     21 C          63.2626   90.1082   13.3733 C.ar    1  UNL1        0.0207
     22 C          63.6930   91.2094   12.4501 C.ar    1  UNL1        0.0989
     23 N          64.9702   91.9512   12.7116 N.ar    1  UNL1       -0.2423
     24 C          65.8171   91.5919   13.8964 C.ar    1  UNL1        0.0989
     25 C          65.3868   90.4908   14.8196 C.ar    1  UNL1        0.0207
@<TRIPOS>BOND
     1    11    12    1
     2    12    13   ar
     3    13    14   ar
     4    14    15   ar
     5    15     1    1
     6     1     2   ar
     7     2     3   ar
     8     3     4   ar
     9     4     5   ar
    10     5     6   ar
    11     5     7    1
    12     7     8    1
    13     8     9    1
    14     9    10    2
    15    10    20    1
    16    20    21   ar
    17    21    22   ar
    18    22    23   ar
    19    23    24   ar
    20    24    25   ar
    21    15    16   ar
    22    16    17   ar
    23    17    18    1
    24    17    12   ar
    25     6     1   ar
    26    25    20   ar
    27    10     4    1
    28    11    19    1
@<TRIPOS>MOLECULE
*****
 25 28 0 0 0
SMALL
GASTEIGER

@<TRIPOS>ATOM
      1 C          63.9744   89.2521   12.8550 C.ar    1  UNL1       -0.0002
      2 C          64.2023   88.0419   13.7113 C.ar    1  UNL1       -0.0000
      3 C          63.6099   86.7216   13.3167 C.ar    1  UNL1       -0.0003
      4 C          62.7896   86.6115   12.0657 C.ar    1  UNL1       -0.0043
      5 C          62.5617   87.8218   11.2094 C.ar    1  UNL1       -0.0218
      6 C          63.1541   89.1421   11.6041 C.ar    1  UNL1       -0.0043
      7 C          61.7413   87.7117    9.9584 C.3     1  UNL1        0.0310
      8 C          61.1489   86.3914    9.5637 C.3     1  UNL1        0.0307
      9 C          61.3768   85.1811   10.4201 C.2     1  UNL1       -0.0258
     10 C          62.1971   85.2911   11.6710 C.2     1  UNL1       -0.0045
     11 O          66.3441   94.5335   14.4337 O.3     1  UNL1       -0.5034
     12 C          65.7517   93.2132   14.0390 C.ar    1  UNL1        0.1610
     13 C          65.4619   92.9224   12.5963 C.ar    1  UNL1        0.0390
     14 C          64.8695   91.6020   12.2016 C.ar    1  UNL1        0.0033
     15 C          64.5668   90.5725   13.2497 C.ar    1  UNL1        0.0024
     16 C          64.8566   90.8633   14.6924 C.ar    1  UNL1        0.0328
     17 C          65.4490   92.1836   15.0871 C.ar    1  UNL1        0.1735
     18 F          65.7387   92.4744   16.5299 F       1  UNL1       -0.2010
     19 H          66.5331   95.1766   13.7790 H       1  UNL1        0.2923
     20 C          62.4250   84.0809   12.5273 C.ar    1  UNL1        0.0028
     21 C          62.4963   84.2203   14.0192 C.ar    1  UNL1        0.0207
     22 C          62.7243   83.0099   14.8755 C.ar    1  UNL1        0.0989
     23 N          62.8809   81.6603   14.2400 N.ar    1  UNL1       -0.2423
     24 C          62.8096   81.5209   12.7482 C.ar    1  UNL1        0.0989
     25 C          62.5817   82.7312   11.8919 C.ar    1  UNL1        0.0207
@<TRIPOS>BOND
     1    11    12    1
     2    12    13   ar
     3    13    14   ar
     4    14    15   ar
     5    15     1    1
     6     1     2   ar
     7     2     3   ar
     8     3     4   ar
     9     4     5   ar
    10     5     6   ar
    11     5     7    1
    12     7     8    1
    13     8     9    1
    14     9    10    2
    15    10    20    1
    16    20    21   ar
    17    21    22   ar
    18    22    23   ar
    19    23    24   ar
    20    24    25   ar
    21    15    16   ar
    22    16    17   ar
    23    17    18    1
    24    17    12   ar
    25     6     1   ar
    26    25    20   ar
    27    10     4    1
    28    11    19    1
