@<TRIPOS>MOLECULE
*****
 32 36 0 0 0
SMALL
GASTEIGER

@<TRIPOS>ATOM
      1 C          62.3681   85.5857   11.3727 C.2     1  UNL1        0.2496
      2 O          62.3383   84.0967   11.1945 O.2     1  UNL1       -0.2699
      3 N          61.6844   86.4742   10.3760 N.am    1  UNL1       -0.2661
      4 C          60.9354   86.0202    9.1583 C.3     1  UNL1        0.1236
      5 C          60.4178   87.2380    8.4517 C.ar    1  UNL1        0.0338
      6 C          59.6350   87.7100    7.2625 C.ar    1  UNL1        0.0991
      7 N          59.5803   89.2084    7.3085 N.ar    1  UNL1       -0.2271
      8 N          60.3294   89.6622    8.5263 N.ar    1  UNL1       -0.1680
      9 C          60.8470   88.4445    9.2329 C.ar    1  UNL1        0.0981
     10 C          61.6298   87.9724   10.4221 C.3     1  UNL1        0.1414
     11 C          58.8967   90.0967    6.3119 C.ar    1  UNL1        0.1042
     12 C          57.4016   90.0774    6.1914 C.ar    1  UNL1        0.1181
     13 N          56.7180   90.9658    5.1948 N.ar    1  UNL1       -0.2384
     14 C          57.5294   91.8736    4.3185 C.ar    1  UNL1        0.1285
     15 C          59.0244   91.8929    4.4390 C.ar    1  UNL1        0.1607
     16 F          59.8358   92.8006    3.5628 F       1  UNL1       -0.2025
     17 C          59.7080   91.0045    5.4357 C.ar    1  UNL1        0.0520
     18 C          63.9824   88.2730   13.8064 C.ar    1  UNL1        0.0686
     19 C          64.5085   87.3878   14.8971 C.ar    1  UNL1        0.0103
     20 C          64.3212   85.9020   14.8129 C.ar    1  UNL1        0.0008
     21 C          63.6078   85.3012   13.6382 C.ar    1  UNL1        0.0045
     22 C          63.0816   86.1864   12.5475 C.ar    1  UNL1        0.0543
     23 C          63.2689   87.6723   12.6316 C.ar    1  UNL1        0.0148
     24 C          63.4204   83.8154   13.5541 C.ar    1  UNL1        0.0024
     25 C          64.4676   82.9632   12.9005 C.ar    1  UNL1        0.0001
     26 C          64.2803   81.4774   12.8164 C.ar    1  UNL1        0.0023
     27 C          63.0458   80.8436   13.3859 C.ar    1  UNL1        0.0296
     28 C          61.9986   81.6958   14.0395 C.ar    1  UNL1        0.1401
     29 F          60.7640   81.0620   14.6089 F       1  UNL1       -0.2042
     30 C          62.1859   83.1816   14.1236 C.ar    1  UNL1        0.0296
     31 N          64.3571   91.2448   13.9746 N.1     1  UNL1       -0.1908
     32 C          64.1697   89.7589   13.8905 C.1     1  UNL1        0.1004
@<TRIPOS>BOND
     1    31    32    3
     2    32    18    1
     3    18    19   ar
     4    19    20   ar
     5    20    21   ar
     6    21    24    1
     7    24    25   ar
     8    25    26   ar
     9    26    27   ar
    10    27    28   ar
    11    28    29    1
    12    28    30   ar
    13    21    22   ar
    14    22     1    1
    15     1     2    2
    16     1     3   am
    17     3     4    1
    18     4     5    1
    19     5     6   ar
    20     6     7   ar
    21     7    11    1
    22    11    12   ar
    23    12    13   ar
    24    13    14   ar
    25    14    15   ar
    26    15    16    1
    27    15    17   ar
    28     7     8   ar
    29     8     9   ar
    30     9    10    1
    31    22    23   ar
    32    23    18   ar
    33    30    24   ar
    34    10     3    1
    35     9     5   ar
    36    17    11   ar
@<TRIPOS>MOLECULE
*****
 32 36 0 0 0
SMALL
GASTEIGER

@<TRIPOS>ATOM
      1 C          60.3572   88.5759   11.2530 C.2     1  UNL1        0.2496
      2 O          59.1925   88.1696   12.1063 O.2     1  UNL1       -0.2699
      3 N          61.5464   89.2448   11.8763 N.am    1  UNL1       -0.2661
      4 C          61.7127   89.5708   13.3310 C.3     1  UNL1        0.1236
      5 C          63.0471   90.2326   13.5081 C.ar    1  UNL1        0.0338
      6 C          63.9745   90.8431   14.5166 C.ar    1  UNL1        0.0991
      7 N          65.2062   91.3034   13.7947 N.ar    1  UNL1       -0.2271
      8 N          65.0399   90.9774   12.3400 N.ar    1  UNL1       -0.1680
      9 C          63.7055   90.3156   12.1629 C.ar    1  UNL1        0.0981
     10 C          62.7780   89.7051   11.1543 C.3     1  UNL1        0.1414
     11 C          66.3953   91.9723   14.4179 C.ar    1  UNL1        0.1042
     12 C          66.2277   92.7921   15.6629 C.ar    1  UNL1        0.1181
     13 N          67.4168   93.4610   16.2862 N.ar    1  UNL1       -0.2384
     14 C          68.7737   93.3101   15.6646 C.ar    1  UNL1        0.1285
     15 C          68.9413   92.4903   14.4196 C.ar    1  UNL1        0.1607
     16 F          70.2981   92.3394   13.7981 F       1  UNL1       -0.2025
     17 C          67.7521   91.8214   13.7964 C.ar    1  UNL1        0.0520
     18 C          59.6061   89.0050    7.3797 C.ar    1  UNL1        0.0686
     19 C          60.2840   87.7882    6.8230 C.ar    1  UNL1        0.0103
     20 C          60.9864   86.8340    7.7430 C.ar    1  UNL1        0.0008
     21 C          61.0108   87.0966    9.2196 C.ar    1  UNL1        0.0045
     22 C          60.3329   88.3133    9.7764 C.ar    1  UNL1        0.0543
     23 C          59.6305   89.2675    8.8564 C.ar    1  UNL1        0.0148
     24 C          61.7131   86.1424   10.1395 C.ar    1  UNL1        0.0024
     25 C          61.4289   86.1738   11.6120 C.ar    1  UNL1        0.0001
     26 C          62.1312   85.2196   12.5319 C.ar    1  UNL1        0.0023
     27 C          63.1178   84.2341   11.9794 C.ar    1  UNL1        0.0296
     28 C          63.4021   84.2027   10.5069 C.ar    1  UNL1        0.1401
     29 F          64.3887   83.2171    9.9544 F       1  UNL1       -0.2042
     30 C          62.6998   85.1568    9.5870 C.ar    1  UNL1        0.0296
     31 N          58.2014   90.9133    5.5399 N.1     1  UNL1       -0.1908
     32 C          58.9038   89.9591    6.4598 C.1     1  UNL1        0.1004
@<TRIPOS>BOND
     1    31    32    3
     2    32    18    1
     3    18    19   ar
     4    19    20   ar
     5    20    21   ar
     6    21    24    1
     7    24    25   ar
     8    25    26   ar
     9    26    27   ar
    10    27    28   ar
    11    28    29    1
    12    28    30   ar
    13    21    22   ar
    14    22     1    1
    15     1     2    2
    16     1     3   am
    17     3     4    1
    18     4     5    1
    19     5     6   ar
    20     6     7   ar
    21     7    11    1
    22    11    12   ar
    23    12    13   ar
    24    13    14   ar
    25    14    15   ar
    26    15    16    1
    27    15    17   ar
    28     7     8   ar
    29     8     9   ar
    30     9    10    1
    31    22    23   ar
    32    23    18   ar
    33    30    24   ar
    34    10     3    1
    35     9     5   ar
    36    17    11   ar
@<TRIPOS>MOLECULE
*****
 32 36 0 0 0
SMALL
GASTEIGER

@<TRIPOS>ATOM
      1 C          64.4925   89.5776   14.1113 C.2     1  UNL1        0.2496
      2 O          65.0985   90.1956   15.3364 O.2     1  UNL1       -0.2699
      3 N          64.1463   88.1181   14.1004 N.am    1  UNL1       -0.2661
      4 C          64.3472   87.1559   15.2334 C.3     1  UNL1        0.1236
      5 C          63.8634   85.8078   14.7878 C.ar    1  UNL1        0.0338
      6 C          63.6886   84.3799   15.2128 C.ar    1  UNL1        0.0991
      7 N          63.0808   83.6264   14.0669 N.ar    1  UNL1       -0.2271
      8 N          62.8799   84.5887   12.9339 N.ar    1  UNL1       -0.1680
      9 C          63.3637   85.9368   13.3795 C.ar    1  UNL1        0.0981
     10 C          63.5385   87.3647   12.9545 C.3     1  UNL1        0.1414
     11 C          62.7346   82.1670   14.0560 C.ar    1  UNL1        0.1042
     12 C          63.8179   81.1402   13.9071 C.ar    1  UNL1        0.1181
     13 N          63.4718   79.6808   13.8963 N.ar    1  UNL1       -0.2384
     14 C          62.0421   79.2480   14.0343 C.ar    1  UNL1        0.1285
     15 C          60.9587   80.2747   14.1832 C.ar    1  UNL1        0.1607
     16 F          59.5292   79.8420   14.3213 F       1  UNL1       -0.2025
     17 C          61.3050   81.7342   14.1941 C.ar    1  UNL1        0.0520
     18 C          62.8772   90.8845   10.7299 C.ar    1  UNL1        0.0686
     19 C          63.7133   92.1021   10.4685 C.ar    1  UNL1        0.0103
     20 C          64.8091   92.4782   11.4212 C.ar    1  UNL1        0.0008
     21 C          65.0689   91.6368   12.6355 C.ar    1  UNL1        0.0045
     22 C          64.2328   90.4191   12.8970 C.ar    1  UNL1        0.0543
     23 C          63.1370   90.0430   11.9443 C.ar    1  UNL1        0.0148
     24 C          66.1646   92.0129   13.5882 C.ar    1  UNL1        0.0024
     25 C          65.8266   92.6120   14.9212 C.ar    1  UNL1        0.0001
     26 C          66.9224   92.9881   15.8740 C.ar    1  UNL1        0.0023
     27 C          68.3562   92.7652   15.4938 C.ar    1  UNL1        0.0296
     28 C          68.6942   92.1661   14.1608 C.ar    1  UNL1        0.1401
     29 F          70.1280   91.9432   13.7806 F       1  UNL1       -0.2042
     30 C          67.5984   91.7900   13.2080 C.ar    1  UNL1        0.0296
     31 N          60.6857   90.1322    8.8244 N.1     1  UNL1       -0.1908
     32 C          61.7815   90.5083    9.7772 C.1     1  UNL1        0.1004
@<TRIPOS>BOND
     1    31    32    3
     2    32    18    1
     3    18    19   ar
     4    19    20   ar
     5    20    21   ar
     6    21    24    1
     7    24    25   ar
     8    25    26   ar
     9    26    27   ar
    10    27    28   ar
    11    28    29    1
    12    28    30   ar
    13    21    22   ar
    14    22     1    1
    15     1     2    2
    16     1     3   am
    17     3     4    1
    18     4     5    1
    19     5     6   ar
    20     6     7   ar
    21     7    11    1
    22    11    12   ar
    23    12    13   ar
    24    13    14   ar
    25    14    15   ar
    26    15    16    1
    27    15    17   ar
    28     7     8   ar
    29     8     9   ar
    30     9    10    1
    31    22    23   ar
    32    23    18   ar
    33    30    24   ar
    34    10     3    1
    35     9     5   ar
    36    17    11   ar
@<TRIPOS>MOLECULE
*****
 32 36 0 0 0
SMALL
GASTEIGER

@<TRIPOS>ATOM
      1 C          63.9675   90.2976   15.6744 C.2     1  UNL1        0.2496
      2 O          63.2292   90.9579   16.8008 O.2     1  UNL1       -0.2699
      3 N          63.7856   88.8313   15.4159 N.am    1  UNL1       -0.2661
      4 C          62.9039   87.9013   16.1955 C.3     1  UNL1        0.1236
      5 C          63.0268   86.5328   15.5939 C.ar    1  UNL1        0.0338
      6 C          62.5579   85.1122   15.7039 C.ar    1  UNL1        0.0991
      7 N          63.2257   84.3184   14.6204 N.ar    1  UNL1       -0.2271
      8 N          64.1074   85.2484   13.8408 N.ar    1  UNL1       -0.1680
      9 C          63.9845   86.6170   14.4424 C.ar    1  UNL1        0.0981
     10 C          64.4534   88.0375   14.3324 C.3     1  UNL1        0.1414
     11 C          63.0438   82.8521   14.3620 C.ar    1  UNL1        0.1042
     12 C          64.2333   81.9914   14.0545 C.ar    1  UNL1        0.1181
     13 N          64.0513   80.5252   13.7961 N.ar    1  UNL1       -0.2384
     14 C          62.6799   79.9195   13.8450 C.ar    1  UNL1        0.1285
     15 C          61.4904   80.7800   14.1525 C.ar    1  UNL1        0.1607
     16 F          60.1191   80.1743   14.2014 F       1  UNL1       -0.2025
     17 C          61.6724   82.2464   14.4109 C.ar    1  UNL1        0.0520
     18 C          66.9945   92.6012   14.5423 C.ar    1  UNL1        0.0686
     19 C          66.7284   92.7159   13.0706 C.ar    1  UNL1        0.0103
     20 C          65.5421   92.0244   12.4667 C.ar    1  UNL1        0.0008
     21 C          64.6218   91.2184   13.3346 C.ar    1  UNL1        0.0045
     22 C          64.8878   91.1037   14.8064 C.ar    1  UNL1        0.0543
     23 C          66.0741   91.7951   15.4102 C.ar    1  UNL1        0.0148
     24 C          63.4355   90.5269   12.7308 C.ar    1  UNL1        0.0024
     25 C          62.1081   90.5684   13.4281 C.ar    1  UNL1        0.0001
     26 C          60.9218   89.8770   12.8243 C.ar    1  UNL1        0.0023
     27 C          61.0629   89.1441   11.5231 C.ar    1  UNL1        0.0296
     28 C          62.3903   89.1026   10.8258 C.ar    1  UNL1        0.1401
     29 F          62.5314   88.3698    9.5247 F       1  UNL1       -0.2042
     30 C          63.5766   89.7941   11.4296 C.ar    1  UNL1        0.0296
     31 N          69.3671   93.9841   15.7500 N.1     1  UNL1       -0.1908
     32 C          68.1808   93.2926   15.1462 C.1     1  UNL1        0.1004
@<TRIPOS>BOND
     1    31    32    3
     2    32    18    1
     3    18    19   ar
     4    19    20   ar
     5    20    21   ar
     6    21    24    1
     7    24    25   ar
     8    25    26   ar
     9    26    27   ar
    10    27    28   ar
    11    28    29    1
    12    28    30   ar
    13    21    22   ar
    14    22     1    1
    15     1     2    2
    16     1     3   am
    17     3     4    1
    18     4     5    1
    19     5     6   ar
    20     6     7   ar
    21     7    11    1
    22    11    12   ar
    23    12    13   ar
    24    13    14   ar
    25    14    15   ar
    26    15    16    1
    27    15    17   ar
    28     7     8   ar
    29     8     9   ar
    30     9    10    1
    31    22    23   ar
    32    23    18   ar
    33    30    24   ar
    34    10     3    1
    35     9     5   ar
    36    17    11   ar
