@<TRIPOS>MOLECULE
*****
 17 18 0 0 0
SMALL
GASTEIGER

@<TRIPOS>ATOM
      1 C          66.1341   93.9033   11.7730 C.ar    1  UNL1        0.1493
      2 C          65.4358   92.5758   11.7652 C.ar    1  UNL1        0.0405
      3 C          65.5027   92.0086   13.1522 C.ar    1  UNL1        0.0375
      4 C          66.2424   92.9857   14.0173 C.ar    1  UNL1        0.1385
      5 O          66.6326   94.1566   13.1649 O.2     1  UNL1       -0.4562
      6 C          67.4610   94.6275    9.6599 C.ar    1  UNL1        0.1447
      7 C          67.6309   95.5412    8.4826 C.ar    1  UNL1        0.0577
      8 C          66.6440   96.6446    8.2410 C.ar    1  UNL1        0.1020
      9 N          65.4870   96.8343    9.1767 N.ar    1  UNL1       -0.2420
     10 C          65.3171   95.9205   10.3540 C.ar    1  UNL1        0.1049
     11 C          66.3041   94.8171   10.5956 C.ar    1  UNL1        0.0876
     12 C          68.5930   92.4153    8.9018 C.3     1  UNL1        0.2525
     13 O          68.4480   93.5240    9.9015 O.3     1  UNL1       -0.4712
     14 C          66.5396   92.8207   15.4783 C.3     1  UNL1        0.1307
     15 N          65.4202   92.8261   16.4766 N.3     1  UNL1       -0.3148
     16 H          64.9846   93.7483   16.4941 H       1  UNL1        0.1192
     17 H          65.7888   92.6066   17.4020 H       1  UNL1        0.1192
@<TRIPOS>BOND
     1    12    13    1
     2    13     6    1
     3     6     7   ar
     4     7     8   ar
     5     8     9   ar
     6     9    10   ar
     7    10    11   ar
     8    11     1    1
     9     1     2   ar
    10     2     3   ar
    11     3     4   ar
    12     4    14    1
    13    14    15    1
    14     4     5   ar
    15    11     6   ar
    16     5     1   ar
    17    15    16    1
    18    15    17    1
@<TRIPOS>MOLECULE
*****
 17 18 0 0 0
SMALL
GASTEIGER

@<TRIPOS>ATOM
      1 C          66.8139   92.8050   11.1324 C.ar    1  UNL1        0.1493
      2 C          67.8715   92.1034   10.3329 C.ar    1  UNL1        0.0405
      3 C          68.2972   93.0186    9.2233 C.ar    1  UNL1        0.0375
      4 C          67.5027   94.2859    9.3370 C.ar    1  UNL1        0.1385
      5 O          66.5860   94.1538   10.5169 O.2     1  UNL1       -0.4562
      6 C          66.8548   92.0692   13.6238 C.ar    1  UNL1        0.1447
      7 C          66.1489   91.5187   14.8274 C.ar    1  UNL1        0.0577
      8 C          64.6965   91.1534   14.7433 C.ar    1  UNL1        0.1020
      9 N          63.9499   91.3387   13.4556 N.ar    1  UNL1       -0.2420
     10 C          64.6557   91.8892   12.2520 C.ar    1  UNL1        0.1049
     11 C          66.1081   92.2544   12.3361 C.ar    1  UNL1        0.0876
     12 C          68.9166   92.7863   15.0325 C.3     1  UNL1        0.2525
     13 O          68.3072   92.4344   13.7079 O.3     1  UNL1       -0.4712
     14 C          67.6067   95.4761    8.4301 C.3     1  UNL1        0.1307
     15 N          67.7016   96.8557    9.0112 N.3     1  UNL1       -0.3148
     16 H          66.8310   97.0828    9.4918 H       1  UNL1        0.1192
     17 H          67.8625   97.5296    8.2627 H       1  UNL1        0.1192
@<TRIPOS>BOND
     1    12    13    1
     2    13     6    1
     3     6     7   ar
     4     7     8   ar
     5     8     9   ar
     6     9    10   ar
     7    10    11   ar
     8    11     1    1
     9     1     2   ar
    10     2     3   ar
    11     3     4   ar
    12     4    14    1
    13    14    15    1
    14     4     5   ar
    15    11     6   ar
    16     5     1   ar
    17    15    16    1
    18    15    17    1
@<TRIPOS>MOLECULE
*****
 17 18 0 0 0
SMALL
GASTEIGER

@<TRIPOS>ATOM
      1 C          61.9395   89.2000   10.5256 C.ar    1  UNL1        0.1493
      2 C          62.7612   90.4140   10.2081 C.ar    1  UNL1        0.0405
      3 C          63.4216   90.8711   11.4749 C.ar    1  UNL1        0.0375
      4 C          63.0081   89.9394   12.5755 C.ar    1  UNL1        0.1385
      5 O          62.0921   88.9067   11.9887 O.2     1  UNL1       -0.4562
      6 C          61.3449   86.9450    9.3803 C.ar    1  UNL1        0.1447
      7 C          60.5161   86.1618    8.4058 C.ar    1  UNL1        0.0577
      8 C          59.4530   86.8503    7.6022 C.ar    1  UNL1        0.1020
      9 N          59.2187   88.3220    7.7730 N.ar    1  UNL1       -0.2420
     10 C          60.0476   89.1052    8.7474 C.ar    1  UNL1        0.1049
     11 C          61.1107   88.4167    9.5511 C.ar    1  UNL1        0.0876
     12 C          62.0262   85.3961   11.3517 C.3     1  UNL1        0.2525
     13 O          62.4080   86.2565   10.1839 O.3     1  UNL1       -0.4712
     14 C          63.4355   90.0255   14.0107 C.3     1  UNL1        0.1307
     15 N          63.5184   91.3604   14.6898 N.3     1  UNL1       -0.3148
     16 H          64.2567   91.9162   14.2581 H       1  UNL1        0.1192
     17 H          63.7279   91.2262   15.6789 H       1  UNL1        0.1192
@<TRIPOS>BOND
     1    12    13    1
     2    13     6    1
     3     6     7   ar
     4     7     8   ar
     5     8     9   ar
     6     9    10   ar
     7    10    11   ar
     8    11     1    1
     9     1     2   ar
    10     2     3   ar
    11     3     4   ar
    12     4    14    1
    13    14    15    1
    14     4     5   ar
    15    11     6   ar
    16     5     1   ar
    17    15    16    1
    18    15    17    1
@<TRIPOS>MOLECULE
*****
 17 18 0 0 0
SMALL
GASTEIGER

@<TRIPOS>ATOM
      1 C          62.3287   85.3611   11.5180 C.ar    1  UNL1        0.1493
      2 C          63.0513   84.1952   10.9109 C.ar    1  UNL1        0.0405
      3 C          63.3540   83.2161   12.0062 C.ar    1  UNL1        0.0375
      4 C          62.8184   83.7768   13.2903 C.ar    1  UNL1        0.1385
      5 O          62.1848   85.1025   12.9886 O.2     1  UNL1       -0.4562
      6 C          62.2871   87.9400   11.2053 C.ar    1  UNL1        0.1447
      7 C          61.7948   89.1516   10.4708 C.ar    1  UNL1        0.0577
      8 C          60.8518   88.9962    9.3147 C.ar    1  UNL1        0.1020
      9 N          60.4011   87.6291    8.8930 N.ar    1  UNL1       -0.2420
     10 C          60.8934   86.4174    9.6275 C.ar    1  UNL1        0.1049
     11 C          61.8364   86.5729   10.7836 C.ar    1  UNL1        0.0876
     12 C          63.5083   89.4576   12.9244 C.3     1  UNL1        0.2525
     13 O          63.2301   88.0954   12.3614 O.3     1  UNL1       -0.4712
     14 C          62.9019   83.1261   14.6392 C.3     1  UNL1        0.1307
     15 N          62.2778   81.7806   14.8627 N.3     1  UNL1       -0.3148
     16 H          61.2646   81.8565   14.7722 H       1  UNL1        0.1192
     17 H          62.5116   81.4485   15.7984 H       1  UNL1        0.1192
@<TRIPOS>BOND
     1    12    13    1
     2    13     6    1
     3     6     7   ar
     4     7     8   ar
     5     8     9   ar
     6     9    10   ar
     7    10    11   ar
     8    11     1    1
     9     1     2   ar
    10     2     3   ar
    11     3     4   ar
    12     4    14    1
    13    14    15    1
    14     4     5   ar
    15    11     6   ar
    16     5     1   ar
    17    15    16    1
    18    15    17    1
@<TRIPOS>MOLECULE
*****
 17 18 0 0 0
SMALL
GASTEIGER

@<TRIPOS>ATOM
      1 C          62.2454   85.0758   11.3486 C.ar    1  UNL1        0.1493
      2 C          62.5779   85.3936    9.9209 C.ar    1  UNL1        0.0405
      3 C          61.8307   86.6361    9.5365 C.ar    1  UNL1        0.0375
      4 C          61.0363   87.0862   10.7266 C.ar    1  UNL1        0.1385
      5 O          61.2927   86.1219   11.8466 O.2     1  UNL1       -0.4562
      6 C          63.3439   84.1388   13.5086 C.ar    1  UNL1        0.1447
      7 C          63.8715   82.9786   14.2995 C.ar    1  UNL1        0.0577
      8 C          63.8283   81.5951   13.7213 C.ar    1  UNL1        0.1020
      9 N          63.2575   81.3719   12.3523 N.ar    1  UNL1       -0.2420
     10 C          62.7299   82.5321   11.5614 C.ar    1  UNL1        0.1049
     11 C          62.7731   83.9155   12.1396 C.ar    1  UNL1        0.0876
     12 C          64.5560   85.9488   14.9244 C.3     1  UNL1        0.2525
     13 O          63.3871   85.5222   14.0868 O.3     1  UNL1       -0.4712
     14 C          60.1426   88.2894   10.7863 C.3     1  UNL1        0.1307
     15 N          59.3934   88.6053   12.0468 N.3     1  UNL1       -0.3148
     16 H          58.7063   87.8731   12.2265 H       1  UNL1        0.1192
     17 H          58.9166   89.5011   11.9436 H       1  UNL1        0.1192
@<TRIPOS>BOND
     1    12    13    1
     2    13     6    1
     3     6     7   ar
     4     7     8   ar
     5     8     9   ar
     6     9    10   ar
     7    10    11   ar
     8    11     1    1
     9     1     2   ar
    10     2     3   ar
    11     3     4   ar
    12     4    14    1
    13    14    15    1
    14     4     5   ar
    15    11     6   ar
    16     5     1   ar
    17    15    16    1
    18    15    17    1
@<TRIPOS>MOLECULE
*****
 17 18 0 0 0
SMALL
GASTEIGER

@<TRIPOS>ATOM
      1 C          62.6357   89.6950   12.0051 C.ar    1  UNL1        0.1493
      2 C          63.5786   90.8273   11.7244 C.ar    1  UNL1        0.0405
      3 C          64.1599   91.2811   13.0305 C.ar    1  UNL1        0.0375
      4 C          63.5763   90.4292   14.1186 C.ar    1  UNL1        0.1385
      5 O          62.6344   89.4489   13.4848 O.2     1  UNL1       -0.4562
      6 C          61.8452   87.4410   10.9828 C.ar    1  UNL1        0.1447
      7 C          61.0443   86.6871    9.9630 C.ar    1  UNL1        0.0577
      8 C          60.2330   87.4332    8.9455 C.ar    1  UNL1        0.1020
      9 N          60.2227   88.9331    8.9478 N.ar    1  UNL1       -0.2420
     10 C          61.0235   89.6870    9.9677 C.ar    1  UNL1        0.1049
     11 C          61.8348   88.9410   10.9852 C.ar    1  UNL1        0.0876
     12 C          62.6238   85.1958   12.0327 C.3     1  UNL1        0.2525
     13 O          62.6564   86.6950   12.0003 O.3     1  UNL1       -0.4712
     14 C          63.8813   90.5384   15.5832 C.3     1  UNL1        0.1307
     15 N          63.5564   91.8012   16.3247 N.3     1  UNL1       -0.3148
     16 H          64.1376   92.5616   15.9722 H       1  UNL1        0.1192
     17 H          63.7379   91.6676   17.3195 H       1  UNL1        0.1192
@<TRIPOS>BOND
     1    12    13    1
     2    13     6    1
     3     6     7   ar
     4     7     8   ar
     5     8     9   ar
     6     9    10   ar
     7    10    11   ar
     8    11     1    1
     9     1     2   ar
    10     2     3   ar
    11     3     4   ar
    12     4    14    1
    13    14    15    1
    14     4     5   ar
    15    11     6   ar
    16     5     1   ar
    17    15    16    1
    18    15    17    1
@<TRIPOS>MOLECULE
*****
 17 18 0 0 0
SMALL
GASTEIGER

@<TRIPOS>ATOM
      1 C          63.8098   84.1075   13.9321 C.ar    1  UNL1        0.1493
      2 C          64.9894   84.9827   14.2362 C.ar    1  UNL1        0.0405
      3 C          64.6735   85.7739   15.4708 C.ar    1  UNL1        0.0375
      4 C          63.2986   85.3877   15.9297 C.ar    1  UNL1        0.1385
      5 O          62.7648   84.3578   14.9788 O.2     1  UNL1       -0.4562
      6 C          62.8243   81.9347   12.9035 C.ar    1  UNL1        0.1447
      7 C          62.7097   80.9773   11.7545 C.ar    1  UNL1        0.0577
      8 C          63.4661   81.2352   10.4851 C.ar    1  UNL1        0.1020
      9 N          64.3370   82.4505   10.3647 N.ar    1  UNL1       -0.2420
     10 C          64.4516   83.4079   11.5137 C.ar    1  UNL1        0.1049
     11 C          63.6952   83.1500   12.7831 C.ar    1  UNL1        0.0876
     12 C          60.8231   80.8403   14.1475 C.3     1  UNL1        0.2525
     13 O          62.0679   81.6768   14.1729 O.3     1  UNL1       -0.4712
     14 C          62.5832   85.9352   17.1290 C.3     1  UNL1        0.1307
     15 N          61.1473   86.3549   17.0189 N.3     1  UNL1       -0.3148
     16 H          61.0749   87.1587   16.3952 H       1  UNL1        0.1192
     17 H          60.7953   86.6081   17.9421 H       1  UNL1        0.1192
@<TRIPOS>BOND
     1    12    13    1
     2    13     6    1
     3     6     7   ar
     4     7     8   ar
     5     8     9   ar
     6     9    10   ar
     7    10    11   ar
     8    11     1    1
     9     1     2   ar
    10     2     3   ar
    11     3     4   ar
    12     4    14    1
    13    14    15    1
    14     4     5   ar
    15    11     6   ar
    16     5     1   ar
    17    15    16    1
    18    15    17    1
@<TRIPOS>MOLECULE
*****
 17 18 0 0 0
SMALL
GASTEIGER

@<TRIPOS>ATOM
      1 C          66.2699   92.7379   12.1735 C.ar    1  UNL1        0.1493
      2 C          65.1215   91.7904   12.3561 C.ar    1  UNL1        0.0405
      3 C          64.8995   91.6095   13.8285 C.ar    1  UNL1        0.0375
      4 C          65.9107   92.4452   14.5559 C.ar    1  UNL1        0.1385
      5 O          66.7576   93.1426   13.5330 O.2     1  UNL1       -0.4562
      6 C          66.4967   94.5660   10.3413 C.ar    1  UNL1        0.1447
      7 C          67.0587   95.0277    9.0295 C.ar    1  UNL1        0.0577
      8 C          67.9561   94.1231    8.2380 C.ar    1  UNL1        0.1020
      9 N          68.2913   92.7568    8.7583 N.ar    1  UNL1       -0.2420
     10 C          67.7293   92.2951   10.0701 C.ar    1  UNL1        0.1049
     11 C          66.8320   93.1997   10.8616 C.ar    1  UNL1        0.0876
     12 C          66.0548   96.8548   11.4886 C.3     1  UNL1        0.2525
     13 O          65.5994   95.4706   11.1329 O.3     1  UNL1       -0.4712
     14 C          66.0504   92.5629   16.0447 C.3     1  UNL1        0.1307
     15 N          64.8346   92.7733   16.8978 N.3     1  UNL1       -0.3148
     16 H          64.4285   93.6860   16.6917 H       1  UNL1        0.1192
     17 H          65.0988   92.7330   17.8821 H       1  UNL1        0.1192
@<TRIPOS>BOND
     1    12    13    1
     2    13     6    1
     3     6     7   ar
     4     7     8   ar
     5     8     9   ar
     6     9    10   ar
     7    10    11   ar
     8    11     1    1
     9     1     2   ar
    10     2     3   ar
    11     3     4   ar
    12     4    14    1
    13    14    15    1
    14     4     5   ar
    15    11     6   ar
    16     5     1   ar
    17    15    16    1
    18    15    17    1
@<TRIPOS>MOLECULE
*****
 17 18 0 0 0
SMALL
GASTEIGER

@<TRIPOS>ATOM
      1 C          66.6727   93.0104   10.8490 C.ar    1  UNL1        0.1493
      2 C          67.8249   92.4721   10.0536 C.ar    1  UNL1        0.0405
      3 C          68.1525   93.4674    8.9803 C.ar    1  UNL1        0.0375
      4 C          67.2027   94.6210    9.1124 C.ar    1  UNL1        0.1385
      5 O          66.2882   94.3385   10.2673 O.2     1  UNL1       -0.4562
      6 C          64.6516   91.7409   11.8754 C.ar    1  UNL1        0.1447
      7 C          63.9986   91.0691   13.0468 C.ar    1  UNL1        0.0577
      8 C          64.7137   90.9950   14.3633 C.ar    1  UNL1        0.1020
      9 N          66.0818   91.5927   14.5084 N.ar    1  UNL1       -0.2420
     10 C          66.7348   92.2645   13.3369 C.ar    1  UNL1        0.1049
     11 C          66.0197   92.3386   12.0204 C.ar    1  UNL1        0.0876
     12 C          62.7800   90.9011   10.2811 C.3     1  UNL1        0.2525
     13 O          63.9365   91.8149   10.5589 O.3     1  UNL1       -0.4712
     14 C          67.1728   95.8425    8.2423 C.3     1  UNL1        0.1307
     15 N          65.9343   96.1805    7.4666 N.3     1  UNL1       -0.3148
     16 H          65.7694   95.4636    6.7600 H       1  UNL1        0.1192
     17 H          66.0546   97.0853    7.0113 H       1  UNL1        0.1192
@<TRIPOS>BOND
     1    12    13    1
     2    13     6    1
     3     6     7   ar
     4     7     8   ar
     5     8     9   ar
     6     9    10   ar
     7    10    11   ar
     8    11     1    1
     9     1     2   ar
    10     2     3   ar
    11     3     4   ar
    12     4    14    1
    13    14    15    1
    14     4     5   ar
    15    11     6   ar
    16     5     1   ar
    17    15    16    1
    18    15    17    1
