@<TRIPOS>MOLECULE
*****
 28 30 0 0 0
SMALL
GASTEIGER

@<TRIPOS>ATOM
      1 C          63.2035   90.4069   11.9034 C.ar    1  UNL1        0.1534
      2 C          63.9234   90.5518   13.2113 C.ar    1  UNL1        0.0351
      3 C          65.0450   91.5387   13.3447 C.ar    1  UNL1        0.0722
      4 CL         65.7650   91.6836   14.6527 Cl      1  UNL1       -0.0809
      5 C          65.4468   92.3808   12.1702 C.ar    1  UNL1        0.0577
      6 C          64.7269   92.2359   10.8623 C.ar    1  UNL1        0.0462
      7 C          63.6053   91.2490   10.7288 C.ar    1  UNL1        0.1602
      8 F          62.8853   91.1041    9.4208 F       1  UNL1       -0.2027
      9 O          63.0336   88.2985   12.0638 O.2     1  UNL1       -0.1498
     10 S          62.0818   89.4200   11.7699 S.O2    1  UNL1        0.0772
     11 O          61.1300   90.5414   11.4760 O.2     1  UNL1       -0.1498
     12 N          60.9602   88.4330   11.6364 N.pl3   1  UNL1       -0.1936
     13 H          60.4280   88.1829   12.4260 H       1  UNL1        0.1758
     14 C          60.6493   87.8271   10.2999 C.ar    1  UNL1        0.1786
     15 N          59.9244   88.5015    9.1732 N.ar    1  UNL1       -0.2214
     16 C          59.8359   87.5316    8.0324 C.ar    1  UNL1        0.1079
     17 C          60.5062   86.2576    8.4541 C.ar    1  UNL1        0.0588
     18 S          61.0090   86.4403    9.8555 S.2     1  UNL1       -0.0497
     19 N          66.5685   93.3677   12.3037 N.pl3   1  UNL1       -0.3319
     20 H          67.4639   93.0615   12.5750 H       1  UNL1        0.1468
     21 C          66.3259   94.8212   12.0237 C.3     1  UNL1        0.0884
     22 C          66.3236   95.3226   10.6099 C.3     1  UNL1        0.0353
     23 C          67.4121   94.9073    9.6652 C.3     1  UNL1        0.0045
     24 C          67.4098   95.4086    8.2515 C.3     1  UNL1        0.0172
     25 C          66.3190   96.3252    7.7825 C.3     1  UNL1        0.0686
     26 N          65.2304   96.7405    8.7272 N.3     1  UNL1       -0.2974
     27 C          65.2328   96.2392   10.1410 C.3     1  UNL1        0.0702
     28 H          64.3488   96.4417    8.3103 H       1  UNL1        0.1232
@<TRIPOS>BOND
     1     9    10    2
     2    10    11    2
     3    10    12    1
     4    12    14    1
     5    14    15   ar
     6    15    16   ar
     7    16    17   ar
     8    17    18   ar
     9    10     1    1
    10     1     2   ar
    11     2     3   ar
    12     3     4    1
    13     3     5   ar
    14     5    19    1
    15    19    21    1
    16    22    21    1
    17    22    23    1
    18    23    24    1
    19    24    25    1
    20    25    26    1
    21    26    27    1
    22     5     6   ar
    23     6     7   ar
    24     7     8    1
    25    18    14   ar
    26     7     1   ar
    27    27    22    1
    28    12    13    1
    29    19    20    1
    30    26    28    1
@<TRIPOS>MOLECULE
*****
 28 30 0 0 0
SMALL
GASTEIGER

@<TRIPOS>ATOM
      1 C          63.6053   90.6523   11.8377 C.ar    1  UNL1        0.1534
      2 C          62.6225   90.6522   10.7045 C.ar    1  UNL1        0.0351
      3 C          61.7722   89.4432   10.4494 C.ar    1  UNL1        0.0722
      4 CL         60.7894   89.4430    9.3161 Cl      1  UNL1       -0.0809
      5 C          61.9047   88.2343   11.3274 C.ar    1  UNL1        0.0577
      6 C          62.8874   88.2344   12.4606 C.ar    1  UNL1        0.0462
      7 C          63.7377   89.4434   12.7158 C.ar    1  UNL1        0.1602
      8 F          64.7205   89.4436   13.8490 F       1  UNL1       -0.2027
      9 O          64.9222   91.8341   10.6676 O.2     1  UNL1       -0.1498
     10 S          64.4556   91.8614   12.0929 S.O2    1  UNL1        0.0772
     11 O          63.9891   91.8888   13.5183 O.2     1  UNL1       -0.1498
     12 N          65.3060   93.0704   12.3481 N.pl3   1  UNL1       -0.1936
     13 H          65.1705   93.8885   11.8173 H       1  UNL1        0.1758
     14 C          66.3628   93.0332   13.4120 C.ar    1  UNL1        0.1786
     15 N          66.4851   93.9824   14.5670 N.ar    1  UNL1       -0.2214
     16 C          67.6807   93.5760   15.3764 C.ar    1  UNL1        0.1079
     17 C          68.2974   92.3755   14.7217 C.ar    1  UNL1        0.0588
     18 S          67.4829   92.0400   13.5076 S.2     1  UNL1       -0.0497
     19 N          61.0543   87.0252   11.0722 N.pl3   1  UNL1       -0.3319
     20 H          60.1653   86.9517   11.4889 H       1  UNL1        0.1468
     21 C          61.5583   85.9280   10.1822 C.3     1  UNL1        0.0884
     22 C          62.5015   84.8956   10.7250 C.3     1  UNL1        0.0353
     23 C          63.4009   84.1380    9.7939 C.3     1  UNL1        0.0045
     24 C          64.3439   83.1056   10.3368 C.3     1  UNL1        0.0172
     25 C          64.3875   82.8307   11.8107 C.3     1  UNL1        0.0686
     26 N          63.4881   83.5883   12.7418 N.3     1  UNL1       -0.2974
     27 C          62.5451   84.6207   12.1990 C.3     1  UNL1        0.0702
     28 H          64.0919   84.0644   13.4120 H       1  UNL1        0.1232
@<TRIPOS>BOND
     1     9    10    2
     2    10    11    2
     3    10    12    1
     4    12    14    1
     5    14    15   ar
     6    15    16   ar
     7    16    17   ar
     8    17    18   ar
     9    10     1    1
    10     1     2   ar
    11     2     3   ar
    12     3     4    1
    13     3     5   ar
    14     5    19    1
    15    19    21    1
    16    22    21    1
    17    22    23    1
    18    23    24    1
    19    24    25    1
    20    25    26    1
    21    26    27    1
    22     5     6   ar
    23     6     7   ar
    24     7     8    1
    25    18    14   ar
    26     7     1   ar
    27    27    22    1
    28    12    13    1
    29    19    20    1
    30    26    28    1
@<TRIPOS>MOLECULE
*****
 28 30 0 0 0
SMALL
GASTEIGER

@<TRIPOS>ATOM
      1 C          64.7378   91.6350   11.9395 C.ar    1  UNL1        0.1534
      2 C          63.7953   91.4768   10.7834 C.ar    1  UNL1        0.0351
      3 C          62.8257   90.3326   10.7574 C.ar    1  UNL1        0.0722
      4 CL         61.8831   90.1744    9.6012 Cl      1  UNL1       -0.0809
      5 C          62.7985   89.3467   11.8875 C.ar    1  UNL1        0.0577
      6 C          63.7410   89.5049   13.0436 C.ar    1  UNL1        0.0462
      7 C          64.7106   90.6491   13.0696 C.ar    1  UNL1        0.1602
      8 F          65.6532   90.8074   14.2258 F       1  UNL1       -0.2027
      9 O          66.1665   92.4216   10.5830 O.2     1  UNL1       -0.1498
     10 S          65.7074   92.7792   11.9655 S.O2    1  UNL1        0.0772
     11 O          65.2484   93.1368   13.3480 O.2     1  UNL1       -0.1498
     12 N          66.6771   93.9233   11.9915 N.pl3   1  UNL1       -0.1936
     13 H          67.2962   94.0267   12.7499 H       1  UNL1        0.1758
     14 C          66.7034   94.9100   10.8619 C.ar    1  UNL1        0.1786
     15 N          67.7185   94.9604    9.7587 N.ar    1  UNL1       -0.2214
     16 C          67.3617   96.1010    8.8522 C.ar    1  UNL1        0.1079
     17 C          66.1260   96.7556    9.3952 C.ar    1  UNL1        0.0588
     18 S          65.7192   96.0194   10.6373 S.2     1  UNL1       -0.0497
     19 N          61.8289   88.2025   11.8615 N.pl3   1  UNL1       -0.3319
     20 H          60.9143   88.3244   12.2049 H       1  UNL1        0.1468
     21 C          62.2527   86.8726   11.3122 C.3     1  UNL1        0.0884
     22 C          61.7853   86.4384    9.9546 C.3     1  UNL1        0.0353
     23 C          62.7052   85.6660    9.0562 C.3     1  UNL1        0.0045
     24 C          62.2378   85.2319    7.6987 C.3     1  UNL1        0.0172
     25 C          60.8505   85.5702    7.2394 C.3     1  UNL1        0.0686
     26 N          59.9306   86.3427    8.1377 N.3     1  UNL1       -0.2974
     27 C          60.3980   86.7768    9.4953 C.3     1  UNL1        0.0702
     28 H          59.1044   85.7623    8.2825 H       1  UNL1        0.1232
@<TRIPOS>BOND
     1     9    10    2
     2    10    11    2
     3    10    12    1
     4    12    14    1
     5    14    15   ar
     6    15    16   ar
     7    16    17   ar
     8    17    18   ar
     9    10     1    1
    10     1     2   ar
    11     2     3   ar
    12     3     4    1
    13     3     5   ar
    14     5    19    1
    15    19    21    1
    16    22    21    1
    17    22    23    1
    18    23    24    1
    19    24    25    1
    20    25    26    1
    21    26    27    1
    22     5     6   ar
    23     6     7   ar
    24     7     8    1
    25    18    14   ar
    26     7     1   ar
    27    27    22    1
    28    12    13    1
    29    19    20    1
    30    26    28    1
@<TRIPOS>MOLECULE
*****
 28 30 0 0 0
SMALL
GASTEIGER

@<TRIPOS>ATOM
      1 C          63.7972   86.7756   15.4808 C.ar    1  UNL1        0.1534
      2 C          64.1085   87.5795   14.2533 C.ar    1  UNL1        0.0351
      3 C          63.9786   89.0735   14.2824 C.ar    1  UNL1        0.0722
      4 CL         64.2899   89.8775   13.0549 Cl      1  UNL1       -0.0809
      5 C          63.5372   89.7637   15.5390 C.ar    1  UNL1        0.0577
      6 C          63.2259   88.9598   16.7664 C.ar    1  UNL1        0.0462
      7 C          63.3559   87.4657   16.7373 C.ar    1  UNL1        0.1602
      8 F          63.0445   86.6617   17.9649 F       1  UNL1       -0.2027
      9 O          62.4819   85.1484   15.8306 O.2     1  UNL1       -0.1498
     10 S          63.9271   85.2815   15.4517 S.O2    1  UNL1        0.0772
     11 O          65.3724   85.4145   15.0729 O.2     1  UNL1       -0.1498
     12 N          64.0570   83.7874   15.4227 N.pl3   1  UNL1       -0.1936
     13 H          64.5570   83.3229   16.1322 H       1  UNL1        0.1758
     14 C          63.4251   83.0010   14.3125 C.ar    1  UNL1        0.1786
     15 N          62.7369   81.6755   14.4518 N.ar    1  UNL1       -0.2214
     16 C          62.2569   81.2574   13.0936 C.ar    1  UNL1        0.1079
     17 C          62.6484   82.3246   12.1148 C.ar    1  UNL1        0.0588
     18 S          63.3704   83.4023   12.8682 S.2     1  UNL1       -0.0497
     19 N          63.4073   91.2578   15.5680 N.pl3   1  UNL1       -0.3319
     20 H          62.6411   91.6939   15.1298 H       1  UNL1        0.1468
     21 C          64.4446   92.0874   16.2648 C.3     1  UNL1        0.0884
     22 C          65.7938   92.2823   15.6388 C.3     1  UNL1        0.0353
     23 C          67.0083   92.4330   16.5060 C.3     1  UNL1        0.0045
     24 C          68.3574   92.6279   15.8799 C.3     1  UNL1        0.0172
     25 C          68.4919   92.6720   14.3866 C.3     1  UNL1        0.0686
     26 N          67.2774   92.5214   13.5194 N.3     1  UNL1       -0.2974
     27 C          65.9284   92.3265   14.1455 C.3     1  UNL1        0.0702
     28 H          67.4428   91.7136   12.9189 H       1  UNL1        0.1232
@<TRIPOS>BOND
     1     9    10    2
     2    10    11    2
     3    10    12    1
     4    12    14    1
     5    14    15   ar
     6    15    16   ar
     7    16    17   ar
     8    17    18   ar
     9    10     1    1
    10     1     2   ar
    11     2     3   ar
    12     3     4    1
    13     3     5   ar
    14     5    19    1
    15    19    21    1
    16    22    21    1
    17    22    23    1
    18    23    24    1
    19    24    25    1
    20    25    26    1
    21    26    27    1
    22     5     6   ar
    23     6     7   ar
    24     7     8    1
    25    18    14   ar
    26     7     1   ar
    27    27    22    1
    28    12    13    1
    29    19    20    1
    30    26    28    1
@<TRIPOS>MOLECULE
*****
 28 30 0 0 0
SMALL
GASTEIGER

@<TRIPOS>ATOM
      1 C          63.7707   90.8547   11.8363 C.ar    1  UNL1        0.1534
      2 C          62.7703   90.8129   10.7194 C.ar    1  UNL1        0.0351
      3 C          61.9059   89.6015   10.5318 C.ar    1  UNL1        0.0722
      4 CL         60.9054   89.5597    9.4149 Cl      1  UNL1       -0.0809
      5 C          62.0419   88.4319   11.4611 C.ar    1  UNL1        0.0577
      6 C          63.0423   88.4737   12.5779 C.ar    1  UNL1        0.0462
      7 C          63.9067   89.6851   12.7655 C.ar    1  UNL1        0.1602
      8 F          64.9072   89.7269   13.8824 F       1  UNL1       -0.2027
      9 O          64.3367   92.0514   13.4938 O.2     1  UNL1       -0.1498
     10 S          64.6352   92.0661   12.0240 S.O2    1  UNL1        0.0772
     11 O          64.9338   92.0808   10.5541 O.2     1  UNL1       -0.1498
     12 N          65.4997   93.2775   12.2117 N.pl3   1  UNL1       -0.1936
     13 H          65.4776   93.7708   13.0634 H       1  UNL1        0.1758
     14 C          66.3977   93.7374   11.1016 C.ar    1  UNL1        0.1786
     15 N          67.5597   92.9766   10.5350 N.ar    1  UNL1       -0.2214
     16 C          68.1715   93.8078    9.4466 C.ar    1  UNL1        0.1079
     17 C          67.3877   95.0824    9.3405 C.ar    1  UNL1        0.0588
     18 S          66.2914   95.0388   10.3634 S.2     1  UNL1       -0.0497
     19 N          61.1774   87.2205   11.2734 N.pl3   1  UNL1       -0.3319
     20 H          60.3267   87.1422   11.7627 H       1  UNL1        0.1468
     21 C          61.6091   86.1283   10.3403 C.3     1  UNL1        0.0884
     22 C          62.5266   85.0456   10.8263 C.3     1  UNL1        0.0353
     23 C          63.3401   84.2552    9.8448 C.3     1  UNL1        0.0045
     24 C          64.2575   83.1726   10.3308 C.3     1  UNL1        0.0172
     25 C          64.3614   82.8804   11.7984 C.3     1  UNL1        0.0686
     26 N          63.5480   83.6708   12.7800 N.3     1  UNL1       -0.2974
     27 C          62.6305   84.7534   12.2939 C.3     1  UNL1        0.0702
     28 H          64.2071   84.1100   13.4226 H       1  UNL1        0.1232
@<TRIPOS>BOND
     1     9    10    2
     2    10    11    2
     3    10    12    1
     4    12    14    1
     5    14    15   ar
     6    15    16   ar
     7    16    17   ar
     8    17    18   ar
     9    10     1    1
    10     1     2   ar
    11     2     3   ar
    12     3     4    1
    13     3     5   ar
    14     5    19    1
    15    19    21    1
    16    22    21    1
    17    22    23    1
    18    23    24    1
    19    24    25    1
    20    25    26    1
    21    26    27    1
    22     5     6   ar
    23     6     7   ar
    24     7     8    1
    25    18    14   ar
    26     7     1   ar
    27    27    22    1
    28    12    13    1
    29    19    20    1
    30    26    28    1
@<TRIPOS>MOLECULE
*****
 28 30 0 0 0
SMALL
GASTEIGER

@<TRIPOS>ATOM
      1 C          63.5983   85.8456   13.7684 C.ar    1  UNL1        0.1534
      2 C          62.9867   86.1411   12.4310 C.ar    1  UNL1        0.0351
      3 C          62.9453   87.5508   11.9203 C.ar    1  UNL1        0.0722
      4 CL         62.3337   87.8464   10.5829 Cl      1  UNL1       -0.0809
      5 C          63.5156   88.6650   12.7470 C.ar    1  UNL1        0.0577
      6 C          64.1272   88.3695   14.0843 C.ar    1  UNL1        0.0462
      7 C          64.1685   86.9598   14.5950 C.ar    1  UNL1        0.1602
      8 F          64.7802   86.6642   15.9325 F       1  UNL1       -0.2027
      9 O          62.1721   84.5023   14.5816 O.2     1  UNL1       -0.1498
     10 S          63.6398   84.4358   14.2792 S.O2    1  UNL1        0.0772
     11 O          65.1074   84.3692   13.9768 O.2     1  UNL1       -0.1498
     12 N          63.6811   83.0260   14.7900 N.pl3   1  UNL1       -0.1936
     13 H          63.9999   82.8425   15.7032 H       1  UNL1        0.1758
     14 C          63.2368   81.8959   13.9094 C.ar    1  UNL1        0.1786
     15 N          62.6206   80.6084   14.3707 N.ar    1  UNL1       -0.2214
     16 C          62.3336   79.7717   13.1593 C.ar    1  UNL1        0.1079
     17 C          62.7724   80.5420   11.9492 C.ar    1  UNL1        0.0588
     18 S          63.3306   81.8549   12.4129 S.2     1  UNL1       -0.0497
     19 N          63.4741   90.0748   12.2362 N.pl3   1  UNL1       -0.3319
     20 H          63.2596   90.2500   11.2914 H       1  UNL1        0.1468
     21 C          63.7596   91.2177   13.1648 C.3     1  UNL1        0.0884
     22 C          65.1762   91.6373   13.4244 C.3     1  UNL1        0.0353
     23 C          65.8584   91.2284   14.6962 C.3     1  UNL1        0.0045
     24 C          67.2749   91.6480   14.9558 C.3     1  UNL1        0.0172
     25 C          68.0092   92.4765   13.9436 C.3     1  UNL1        0.0686
     26 N          67.3269   92.8854   12.6719 N.3     1  UNL1       -0.2974
     27 C          65.9104   92.4658   12.4123 C.3     1  UNL1        0.0702
     28 H          67.8887   92.5164   11.9046 H       1  UNL1        0.1232
@<TRIPOS>BOND
     1     9    10    2
     2    10    11    2
     3    10    12    1
     4    12    14    1
     5    14    15   ar
     6    15    16   ar
     7    16    17   ar
     8    17    18   ar
     9    10     1    1
    10     1     2   ar
    11     2     3   ar
    12     3     4    1
    13     3     5   ar
    14     5    19    1
    15    19    21    1
    16    22    21    1
    17    22    23    1
    18    23    24    1
    19    24    25    1
    20    25    26    1
    21    26    27    1
    22     5     6   ar
    23     6     7   ar
    24     7     8    1
    25    18    14   ar
    26     7     1   ar
    27    27    22    1
    28    12    13    1
    29    19    20    1
    30    26    28    1
@<TRIPOS>MOLECULE
*****
 28 30 0 0 0
SMALL
GASTEIGER

@<TRIPOS>ATOM
      1 C          63.5861   90.8221   11.8953 C.ar    1  UNL1        0.1534
      2 C          62.5023   90.9847   10.8712 C.ar    1  UNL1        0.0351
      3 C          61.5119   89.8810   10.6456 C.ar    1  UNL1        0.0722
      4 CL         60.4281   90.0436    9.6213 Cl      1  UNL1       -0.0809
      5 C          61.6053   88.6147   11.4441 C.ar    1  UNL1        0.0577
      6 C          62.6891   88.4521   12.4683 C.ar    1  UNL1        0.0462
      7 C          63.6795   89.5558   12.6939 C.ar    1  UNL1        0.1602
      8 F          64.7633   89.3932   13.7181 F       1  UNL1       -0.2027
      9 O          64.1945   91.9722   13.5707 O.2     1  UNL1       -0.1498
     10 S          64.5765   91.9258   12.1210 S.O2    1  UNL1        0.0772
     11 O          64.9586   91.8794   10.6712 O.2     1  UNL1       -0.1498
     12 N          65.5669   93.0295   12.3467 N.pl3   1  UNL1       -0.1936
     13 H          65.5652   93.8200   11.7599 H       1  UNL1        0.1758
     14 C          66.5600   92.9287   13.4664 C.ar    1  UNL1        0.1786
     15 N          66.6774   93.8701   14.6282 N.ar    1  UNL1       -0.2214
     16 C          67.7999   93.3921   15.5007 C.ar    1  UNL1        0.1079
     17 C          68.3764   92.1551   14.8781 C.ar    1  UNL1        0.0588
     18 S          67.6101   91.8687   13.6207 S.2     1  UNL1       -0.0497
     19 N          60.6149   87.5110   11.2185 N.pl3   1  UNL1       -0.3319
     20 H          60.3293   86.9443   11.9712 H       1  UNL1        0.1468
     21 C          60.0595   87.2706    9.8460 C.3     1  UNL1        0.0884
     22 C          60.8219   86.4300    8.8650 C.3     1  UNL1        0.0353
     23 C          62.2631   86.1015    9.1197 C.3     1  UNL1        0.0045
     24 C          63.0254   85.2609    8.1388 C.3     1  UNL1        0.0172
     25 C          62.3465   84.7488    6.9031 C.3     1  UNL1        0.0686
     26 N          60.9052   85.0773    6.6484 N.3     1  UNL1       -0.2974
     27 C          60.1430   85.9179    7.6293 C.3     1  UNL1        0.0702
     28 H          60.4094   84.1890    6.5741 H       1  UNL1        0.1232
@<TRIPOS>BOND
     1     9    10    2
     2    10    11    2
     3    10    12    1
     4    12    14    1
     5    14    15   ar
     6    15    16   ar
     7    16    17   ar
     8    17    18   ar
     9    10     1    1
    10     1     2   ar
    11     2     3   ar
    12     3     4    1
    13     3     5   ar
    14     5    19    1
    15    19    21    1
    16    22    21    1
    17    22    23    1
    18    23    24    1
    19    24    25    1
    20    25    26    1
    21    26    27    1
    22     5     6   ar
    23     6     7   ar
    24     7     8    1
    25    18    14   ar
    26     7     1   ar
    27    27    22    1
    28    12    13    1
    29    19    20    1
    30    26    28    1
@<TRIPOS>MOLECULE
*****
 28 30 0 0 0
SMALL
GASTEIGER

@<TRIPOS>ATOM
      1 C          60.1957   87.8994    8.8036 C.ar    1  UNL1        0.1534
      2 C          60.6782   88.7982    9.9033 C.ar    1  UNL1        0.0351
      3 C          61.5220   88.2412   11.0113 C.ar    1  UNL1        0.0722
      4 CL         62.0045   89.1399   12.1111 Cl      1  UNL1       -0.0809
      5 C          61.8833   86.7854   11.0196 C.ar    1  UNL1        0.0577
      6 C          61.4008   85.8866    9.9199 C.ar    1  UNL1        0.0462
      7 C          60.5570   86.4436    8.8119 C.ar    1  UNL1        0.1602
      8 F          60.0744   85.5448    7.7122 F       1  UNL1       -0.2027
      9 O          60.1186   89.7441    7.7590 O.2     1  UNL1       -0.1498
     10 S          59.3518   88.4565    7.6956 S.O2    1  UNL1        0.0772
     11 O          58.5851   87.1689    7.6322 O.2     1  UNL1       -0.1498
     12 N          58.5080   89.0135    6.5876 N.pl3   1  UNL1       -0.1936
     13 H          57.6241   88.6236    6.3983 H       1  UNL1        0.1758
     14 C          59.0111   90.1647    5.7679 C.ar    1  UNL1        0.1786
     15 N          60.4282   90.3794    5.3256 N.ar    1  UNL1       -0.2214
     16 C          60.4782   91.6506    4.5309 C.ar    1  UNL1        0.1079
     17 C          59.0919   92.2216    4.4822 C.ar    1  UNL1        0.0588
     18 S          58.1852   91.3032    5.2467 S.2     1  UNL1       -0.0497
     19 N          62.7271   86.2283   12.1276 N.pl3   1  UNL1       -0.3319
     20 H          62.8367   86.7344   12.9650 H       1  UNL1        0.1468
     21 C          63.4039   84.9003   11.9599 C.3     1  UNL1        0.0884
     22 C          62.9248   83.7107   12.7381 C.3     1  UNL1        0.0353
     23 C          62.6155   82.4256   12.0290 C.3     1  UNL1        0.0045
     24 C          62.1365   81.2362   12.8071 C.3     1  UNL1        0.0172
     25 C          61.9667   81.3318   14.2944 C.3     1  UNL1        0.0686
     26 N          62.2760   82.6168   15.0036 N.3     1  UNL1       -0.2974
     27 C          62.7551   83.8063   14.2254 C.3     1  UNL1        0.0702
     28 H          62.9973   82.4063   15.6933 H       1  UNL1        0.1232
@<TRIPOS>BOND
     1     9    10    2
     2    10    11    2
     3    10    12    1
     4    12    14    1
     5    14    15   ar
     6    15    16   ar
     7    16    17   ar
     8    17    18   ar
     9    10     1    1
    10     1     2   ar
    11     2     3   ar
    12     3     4    1
    13     3     5   ar
    14     5    19    1
    15    19    21    1
    16    22    21    1
    17    22    23    1
    18    23    24    1
    19    24    25    1
    20    25    26    1
    21    26    27    1
    22     5     6   ar
    23     6     7   ar
    24     7     8    1
    25    18    14   ar
    26     7     1   ar
    27    27    22    1
    28    12    13    1
    29    19    20    1
    30    26    28    1
@<TRIPOS>MOLECULE
*****
 28 30 0 0 0
SMALL
GASTEIGER

@<TRIPOS>ATOM
      1 C          62.7451   87.0021   12.0110 C.ar    1  UNL1        0.1534
      2 C          62.1645   88.1061   11.1779 C.ar    1  UNL1        0.0351
      3 C          62.4587   89.5369   11.5187 C.ar    1  UNL1        0.0722
      4 CL         61.8781   90.6410   10.6855 Cl      1  UNL1       -0.0809
      5 C          63.3334   89.8638   12.6925 C.ar    1  UNL1        0.0577
      6 C          63.9140   88.7598   13.5257 C.ar    1  UNL1        0.0462
      7 C          63.6198   87.3290   13.1849 C.ar    1  UNL1        0.1602
      8 F          64.2004   86.2249   14.0181 F       1  UNL1       -0.2027
      9 O          62.7777   85.8465   10.2325 O.2     1  UNL1       -0.1498
     10 S          62.4509   85.5712   11.6703 S.O2    1  UNL1        0.0772
     11 O          62.1242   85.2960   13.1081 O.2     1  UNL1       -0.1498
     12 N          62.1568   84.1404   11.3295 N.pl3   1  UNL1       -0.1936
     13 H          61.4918   83.9263   10.6359 H       1  UNL1        0.1758
     14 C          62.8760   83.0357   12.0455 C.ar    1  UNL1        0.1786
     15 N          64.3561   82.9498   12.2735 N.ar    1  UNL1       -0.2214
     16 C          64.6362   81.6841   13.0281 C.ar    1  UNL1        0.1079
     17 C          63.3292   80.9877   13.2666 C.ar    1  UNL1        0.0588
     18 S          62.2413   81.8231   12.6593 S.2     1  UNL1       -0.0497
     19 N          63.6276   91.2947   13.0333 N.pl3   1  UNL1       -0.3319
     20 H          62.9271   91.8597   13.4325 H       1  UNL1        0.1468
     21 C          64.9889   91.8648   12.7657 C.3     1  UNL1        0.0884
     22 C          65.9256   92.1365   13.9054 C.3     1  UNL1        0.0353
     23 C          67.4080   92.1257   13.6768 C.3     1  UNL1        0.0045
     24 C          68.3446   92.3973   14.8165 C.3     1  UNL1        0.0172
     25 C          67.7987   92.6799   16.1848 C.3     1  UNL1        0.0686
     26 N          66.3163   92.6908   16.4134 N.3     1  UNL1       -0.2974
     27 C          65.3797   92.4191   15.2737 C.3     1  UNL1        0.0702
     28 H          66.0808   93.6153   16.7741 H       1  UNL1        0.1232
@<TRIPOS>BOND
     1     9    10    2
     2    10    11    2
     3    10    12    1
     4    12    14    1
     5    14    15   ar
     6    15    16   ar
     7    16    17   ar
     8    17    18   ar
     9    10     1    1
    10     1     2   ar
    11     2     3   ar
    12     3     4    1
    13     3     5   ar
    14     5    19    1
    15    19    21    1
    16    22    21    1
    17    22    23    1
    18    23    24    1
    19    24    25    1
    20    25    26    1
    21    26    27    1
    22     5     6   ar
    23     6     7   ar
    24     7     8    1
    25    18    14   ar
    26     7     1   ar
    27    27    22    1
    28    12    13    1
    29    19    20    1
    30    26    28    1
