@<TRIPOS>MOLECULE
*****
 38 39 0 0 0
SMALL
GASTEIGER

@<TRIPOS>ATOM
      1 C          63.3648   83.6048   12.7555 C.3     1  UNL1        0.1496
      2 N          62.2254   85.5223    9.4730 N.am    1  UNL1       -0.2567
      3 C          63.1232   84.8917    8.4502 C.3     1  UNL1        0.1168
      4 C          62.3059   85.0934   10.9081 C.2     1  UNL1        0.3046
      5 O          61.4081   85.7241   11.9309 O.2     1  UNL1       -0.2526
      6 N          63.2842   84.0338   11.3204 N.am    1  UNL1       -0.2824
      7 H          63.8735   83.6199   10.6491 H       1  UNL1        0.1514
      8 C          61.2470   86.5820    9.0607 C.3     1  UNL1        0.1413
      9 C          62.2351   90.0137   10.5815 C.ar    1  UNL1        0.0875
     10 N          62.6058   88.6629   10.0449 N.ar    1  UNL1       -0.2453
     11 C          61.3422   87.9595    9.6466 C.ar    1  UNL1        0.0858
     12 C          60.1905   88.8756    9.9371 C.ar    1  UNL1        0.0530
     13 S          60.7424   90.1451   10.5149 S.2     1  UNL1       -0.0705
     14 C          63.3937   91.2171   12.5713 C.3     1  UNL1        0.0069
     15 C          63.1896   91.0508   11.0946 C.3     1  UNL1        0.0465
     16 C          63.9398   91.9218   10.1310 C.3     1  UNL1        0.0069
     17 C          64.0427   84.4841   13.7641 C.2     1  UNL1        0.2404
     18 O          65.4651   84.2157   14.1575 O.2     1  UNL1       -0.2733
     19 N          63.2982   85.6318   14.3793 N.am    1  UNL1       -0.3030
     20 H          62.3646   85.8080   14.1211 H       1  UNL1        0.1495
     21 C          63.9761   86.5111   15.3879 C.3     1  UNL1        0.0895
     22 C          63.2383   86.9471   16.6191 C.3     1  UNL1        0.0230
     23 C          63.1742   88.4018   16.9792 C.3     1  UNL1        0.0231
     24 C          63.0620   89.4374   15.9000 C.3     1  UNL1        0.0928
     25 N          64.2768   90.2025   15.4654 N.am    1  UNL1       -0.2707
     26 C          64.4596   91.6276   15.8964 C.2     1  UNL1        0.4020
     27 O          63.4277   92.2875   16.7621 O.2     1  UNL1       -0.2264
     28 H          64.9541   89.7694   14.8972 H       1  UNL1        0.1527
     29 O          65.6744   92.3926   15.4618 O.3     1  UNL1       -0.4291
     30 C          66.5771   91.8290   14.4047 C.3     1  UNL1        0.2447
     31 C          66.7452   92.5496   13.0998 C.ar    1  UNL1        0.0714
     32 C          67.5498   92.0733   11.9269 C.ar    1  UNL1        0.1053
     33 N          67.4401   93.1023   10.8410 N.ar    1  UNL1       -0.2350
     34 C          66.5676   94.2145   11.3429 C.ar    1  UNL1        0.1343
     35 S          66.1382   93.8729   12.7388 S.2     1  UNL1       -0.0652
     36 C          62.7676   82.2966   13.1819 C.3     1  UNL1        0.0270
     37 C          62.8839   81.0939   12.2932 C.3     1  UNL1        0.0022
     38 C          62.0542   82.1912   14.4972 C.3     1  UNL1        0.0022
@<TRIPOS>BOND
     1    14    15    1
     2    15    16    1
     3    15     9    1
     4     9    10   ar
     5    10    11   ar
     6    11     8    1
     7     8     2    1
     8     2     3    1
     9     2     4   am
    10     4     5    2
    11     4     6   am
    12     1     6    1
    13     1    17    1
    14    17    18    2
    15    17    19   am
    16    19    21    1
    17    21    22    1
    18    22    23    1
    19    23    24    1
    20    24    25    1
    21    25    26   am
    22    26    27    2
    23    26    29    1
    24    29    30    1
    25    30    31    1
    26    31    32   ar
    27    32    33   ar
    28    33    34   ar
    29    34    35   ar
    30     1    36    1
    31    36    37    1
    32    36    38    1
    33    11    12   ar
    34    12    13   ar
    35    13     9   ar
    36    35    31   ar
    37     6     7    1
    38    19    20    1
    39    25    28    1
@<TRIPOS>MOLECULE
*****
 38 39 0 0 0
SMALL
GASTEIGER

@<TRIPOS>ATOM
      1 C          61.4553   86.6248    9.0952 C.3     1  UNL1        0.1496
      2 N          63.2877   84.0439   11.4892 N.am    1  UNL1       -0.2567
      3 C          64.2172   83.3716   10.5229 C.3     1  UNL1        0.1168
      4 C          62.3671   85.1283   11.0133 C.2     1  UNL1        0.3046
      5 O          61.4375   85.8006   11.9798 O.2     1  UNL1       -0.2526
      6 N          62.3759   85.5404    9.5712 N.am    1  UNL1       -0.2824
      7 H          62.9860   85.0991    8.9369 H       1  UNL1        0.1514
      8 C          63.2788   83.6318   12.9315 C.3     1  UNL1        0.1413
      9 C          63.6243   86.1719   15.8459 C.ar    1  UNL1        0.0875
     10 N          62.7863   85.2855   14.9729 N.ar    1  UNL1       -0.2453
     11 C          63.6961   84.6064   13.9926 C.ar    1  UNL1        0.0858
     12 C          65.0964   85.0731   14.2596 C.ar    1  UNL1        0.0530
     13 S          65.0521   86.0406   15.4051 S.2     1  UNL1       -0.0705
     14 C          63.1073   88.5293   16.8077 C.3     1  UNL1        0.0069
     15 C          63.1227   87.0375   16.9635 C.3     1  UNL1        0.0465
     16 C          62.6365   86.4114   18.2369 C.3     1  UNL1        0.0069
     17 C          61.6066   88.0214    9.6212 C.2     1  UNL1        0.2404
     18 O          60.8544   89.1498    8.9802 O.2     1  UNL1       -0.2733
     19 N          62.5103   88.2896   10.7881 N.am    1  UNL1       -0.3030
     20 H          63.0040   87.5490   11.2088 H       1  UNL1        0.1495
     21 C          62.6616   89.6862   11.3140 C.3     1  UNL1        0.0895
     22 C          62.7393   89.9264   12.7926 C.3     1  UNL1        0.0230
     23 C          63.9181   89.4252   13.5729 C.3     1  UNL1        0.0231
     24 C          64.8971   90.3980   14.1605 C.3     1  UNL1        0.0928
     25 N          65.3512   91.5818   13.3589 N.am    1  UNL1       -0.2707
     26 C          66.6977   92.1904   13.6168 C.2     1  UNL1        0.4020
     27 O          67.5901   91.6153   14.6763 O.2     1  UNL1       -0.2264
     28 H          64.7655   91.9593   12.6635 H       1  UNL1        0.1527
     29 O          67.1517   93.3741   12.8152 O.3     1  UNL1       -0.4291
     30 C          66.1741   94.1141   11.9511 C.3     1  UNL1        0.2447
     31 C          66.6541   94.8458   10.7326 C.ar    1  UNL1        0.0714
     32 C          66.6765   96.3343   10.5498 C.ar    1  UNL1        0.1053
     33 N          67.2322   96.6257    9.1874 N.ar    1  UNL1       -0.2350
     34 C          67.5532   95.3171    8.5282 C.ar    1  UNL1        0.1343
     35 S          67.1959   94.2171    9.4831 S.2     1  UNL1       -0.0652
     36 C          60.3834   86.3127    8.0935 C.3     1  UNL1        0.0270
     37 C          59.0300   86.9467    8.2211 C.3     1  UNL1        0.0022
     38 C          60.6650   85.3665    6.9641 C.3     1  UNL1        0.0022
@<TRIPOS>BOND
     1    14    15    1
     2    15    16    1
     3    15     9    1
     4     9    10   ar
     5    10    11   ar
     6    11     8    1
     7     8     2    1
     8     2     3    1
     9     2     4   am
    10     4     5    2
    11     4     6   am
    12     1     6    1
    13     1    17    1
    14    17    18    2
    15    17    19   am
    16    19    21    1
    17    21    22    1
    18    22    23    1
    19    23    24    1
    20    24    25    1
    21    25    26   am
    22    26    27    2
    23    26    29    1
    24    29    30    1
    25    30    31    1
    26    31    32   ar
    27    32    33   ar
    28    33    34   ar
    29    34    35   ar
    30     1    36    1
    31    36    37    1
    32    36    38    1
    33    11    12   ar
    34    12    13   ar
    35    13     9   ar
    36    35    31   ar
    37     6     7    1
    38    19    20    1
    39    25    28    1
@<TRIPOS>MOLECULE
*****
 38 39 0 0 0
SMALL
GASTEIGER

@<TRIPOS>ATOM
      1 C          63.2053   89.9030   14.6130 C.3     1  UNL1        0.1496
      2 N          60.7673   89.8549   11.4819 N.am    1  UNL1       -0.2567
      3 C          59.4365   90.0084   12.1564 C.3     1  UNL1        0.1168
      4 C          62.0236   89.8198   12.3007 C.2     1  UNL1        0.3046
      5 O          63.3545   89.6663   11.6260 O.2     1  UNL1       -0.2526
      6 N          61.9490   89.9381   13.7941 N.am    1  UNL1       -0.2824
      7 H          61.0755   90.0389   14.2368 H       1  UNL1        0.1514
      8 C          60.8419   89.7365    9.9884 C.3     1  UNL1        0.1413
      9 C          61.6826   86.2443    8.5177 C.ar    1  UNL1        0.0875
     10 N          62.0921   87.4985    9.2312 N.ar    1  UNL1       -0.2453
     11 C          60.8855   88.3824    9.3446 C.ar    1  UNL1        0.0858
     12 C          59.7303   87.6745    8.7010 C.ar    1  UNL1        0.0530
     13 S          60.2229   86.3530    8.1900 S.2     1  UNL1       -0.0705
     14 C          63.3594   84.4105    9.2763 C.3     1  UNL1        0.0069
     15 C          62.5759   85.0848    8.1895 C.3     1  UNL1        0.0465
     16 C          62.6857   84.5997    6.7744 C.3     1  UNL1        0.0069
     17 C          64.0736   91.1225   14.7068 C.2     1  UNL1        0.2404
     18 O          64.2735   91.9953   13.5033 O.2     1  UNL1       -0.2733
     19 N          64.7420   91.4693   16.0042 N.am    1  UNL1       -0.3030
     20 H          64.6108   90.8965   16.7940 H       1  UNL1        0.1495
     21 C          65.6104   92.6888   16.0980 C.3     1  UNL1        0.0895
     22 C          67.0599   92.5514   16.4582 C.3     1  UNL1        0.0230
     23 C          68.1006   93.2987   15.6781 C.3     1  UNL1        0.0231
     24 C          69.0179   92.5584   14.7504 C.3     1  UNL1        0.0928
     25 N          68.4878   91.9892   13.4678 N.am    1  UNL1       -0.2707
     26 C          67.4267   92.7235   12.7032 C.2     1  UNL1        0.4020
     27 O          66.8955   94.0271   13.2211 O.2     1  UNL1       -0.2264
     28 H          68.8364   91.1335   13.1279 H       1  UNL1        0.1527
     29 O          66.8967   92.1541   11.4207 O.3     1  UNL1       -0.4291
     30 C          65.9662   92.9648   10.5681 C.3     1  UNL1        0.2447
     31 C          66.4570   94.2166    9.9031 C.ar    1  UNL1        0.0714
     32 C          67.5676   94.3041    8.8988 C.ar    1  UNL1        0.1053
     33 N          67.7204   95.7423    8.5007 N.ar    1  UNL1       -0.2350
     34 C          66.7041   96.5435    9.2591 C.ar    1  UNL1        0.1343
     35 S          65.9233   95.6007   10.1258 S.2     1  UNL1       -0.0652
     36 C          63.5932   88.6486   15.3380 C.3     1  UNL1        0.0270
     37 C          63.1594   88.4386   16.7585 C.3     1  UNL1        0.0022
     38 C          64.4149   87.6040   14.6426 C.3     1  UNL1        0.0022
@<TRIPOS>BOND
     1    14    15    1
     2    15    16    1
     3    15     9    1
     4     9    10   ar
     5    10    11   ar
     6    11     8    1
     7     8     2    1
     8     2     3    1
     9     2     4   am
    10     4     5    2
    11     4     6   am
    12     1     6    1
    13     1    17    1
    14    17    18    2
    15    17    19   am
    16    19    21    1
    17    21    22    1
    18    22    23    1
    19    23    24    1
    20    24    25    1
    21    25    26   am
    22    26    27    2
    23    26    29    1
    24    29    30    1
    25    30    31    1
    26    31    32   ar
    27    32    33   ar
    28    33    34   ar
    29    34    35   ar
    30     1    36    1
    31    36    37    1
    32    36    38    1
    33    11    12   ar
    34    12    13   ar
    35    13     9   ar
    36    35    31   ar
    37     6     7    1
    38    19    20    1
    39    25    28    1
@<TRIPOS>MOLECULE
*****
 38 39 0 0 0
SMALL
GASTEIGER

@<TRIPOS>ATOM
      1 C          63.3135   83.5402   12.2388 C.3     1  UNL1        0.1496
      2 N          62.0490   85.7752    9.2130 N.am    1  UNL1       -0.2567
      3 C          62.8965   85.2445    8.0950 C.3     1  UNL1        0.1168
      4 C          62.1880   85.2071   10.5943 C.2     1  UNL1        0.3046
      5 O          61.3405   85.7379   11.7123 O.2     1  UNL1       -0.2526
      6 N          63.1744   84.1083   10.8575 N.am    1  UNL1       -0.2824
      7 H          63.7307   83.7600   10.1237 H       1  UNL1        0.1514
      8 C          61.0625   86.8741    8.9497 C.3     1  UNL1        0.1413
      9 C          62.3091   90.1850   10.5464 C.ar    1  UNL1        0.0875
     10 N          62.5766   88.8255    9.9717 N.ar    1  UNL1       -0.2453
     11 C          61.2620   88.2255    9.5693 C.ar    1  UNL1        0.0858
     12 C          60.1821   89.2142    9.8953 C.ar    1  UNL1        0.0530
     13 S          60.8292   90.4252   10.4991 S.2     1  UNL1       -0.0705
     14 C          63.6211   91.1966   12.5476 C.3     1  UNL1        0.0069
     15 C          63.3404   91.1371   11.0754 C.3     1  UNL1        0.0465
     16 C          64.0911   92.0297   10.1321 C.3     1  UNL1        0.0069
     17 C          64.0055   84.3314   13.3089 C.2     1  UNL1        0.2404
     18 O          65.3165   83.8575   13.8628 O.2     1  UNL1       -0.2733
     19 N          63.3865   85.5965   13.8252 N.am    1  UNL1       -0.3030
     20 H          62.5261   85.9075   13.4616 H       1  UNL1        0.1495
     21 C          64.0785   86.3877   14.8953 C.3     1  UNL1        0.0895
     22 C          64.0207   85.9297   16.3225 C.3     1  UNL1        0.0230
     23 C          62.8506   86.3035   17.1833 C.3     1  UNL1        0.0231
     24 C          62.4029   87.7330   17.2608 C.3     1  UNL1        0.0928
     25 N          63.4090   88.8408   17.1572 N.am    1  UNL1       -0.2707
     26 C          63.3053   89.8471   16.0497 C.2     1  UNL1        0.4020
     27 O          62.1955   89.7458   15.0458 O.2     1  UNL1       -0.2264
     28 H          64.1374   88.9073   17.8161 H       1  UNL1        0.1527
     29 O          64.3114   90.9548   15.9462 O.3     1  UNL1       -0.4291
     30 C          65.3610   90.9169   14.8753 C.3     1  UNL1        0.2447
     31 C          66.5714   91.7969   14.9799 C.ar    1  UNL1        0.0714
     32 C          67.7128   91.8454   14.0080 C.ar    1  UNL1        0.1053
     33 N          68.6995   92.8614   14.5022 N.ar    1  UNL1       -0.2350
     34 C          68.1679   93.4407   15.7796 C.ar    1  UNL1        0.1343
     35 S          66.8526   92.7829   16.0748 S.2     1  UNL1       -0.0652
     36 C          62.7606   82.1810   12.5499 C.3     1  UNL1        0.0270
     37 C          61.9994   81.9543   13.8224 C.3     1  UNL1        0.0022
     38 C          62.9689   81.0485   11.5887 C.3     1  UNL1        0.0022
@<TRIPOS>BOND
     1    14    15    1
     2    15    16    1
     3    15     9    1
     4     9    10   ar
     5    10    11   ar
     6    11     8    1
     7     8     2    1
     8     2     3    1
     9     2     4   am
    10     4     5    2
    11     4     6   am
    12     1     6    1
    13     1    17    1
    14    17    18    2
    15    17    19   am
    16    19    21    1
    17    21    22    1
    18    22    23    1
    19    23    24    1
    20    24    25    1
    21    25    26   am
    22    26    27    2
    23    26    29    1
    24    29    30    1
    25    30    31    1
    26    31    32   ar
    27    32    33   ar
    28    33    34   ar
    29    34    35   ar
    30     1    36    1
    31    36    37    1
    32    36    38    1
    33    11    12   ar
    34    12    13   ar
    35    13     9   ar
    36    35    31   ar
    37     6     7    1
    38    19    20    1
    39    25    28    1
@<TRIPOS>MOLECULE
*****
 38 39 0 0 0
SMALL
GASTEIGER

@<TRIPOS>ATOM
      1 C          61.0646   86.3729    9.2739 C.3     1  UNL1        0.1496
      2 N          61.2025   89.7482   11.3568 N.am    1  UNL1       -0.2567
      3 C          59.9049   89.6727   12.1053 C.3     1  UNL1        0.1168
      4 C          61.5891   88.6483   10.4130 C.2     1  UNL1        0.3046
      5 O          62.8868   88.7240    9.6644 O.2     1  UNL1       -0.2526
      6 N          60.6781   87.4729   10.2177 N.am    1  UNL1       -0.2824
      7 H          59.8264   87.4233   10.7091 H       1  UNL1        0.1514
      8 C          62.1136   90.9238   11.5520 C.3     1  UNL1        0.1413
      9 C          65.2244   91.3628   13.8315 C.ar    1  UNL1        0.0875
     10 N          64.3830   91.7919   12.6661 N.ar    1  UNL1       -0.2453
     11 C          63.2103   90.8612   12.5734 C.ar    1  UNL1        0.0858
     12 C          63.3269   89.8569   13.6815 C.ar    1  UNL1        0.0530
     13 S          64.5717   90.1670   14.4590 S.2     1  UNL1       -0.0705
     14 C          67.7119   91.9843   13.4121 C.3     1  UNL1        0.0069
     15 C          66.4953   92.0152   14.2889 C.3     1  UNL1        0.0465
     16 C          66.5496   92.6983   15.6232 C.3     1  UNL1        0.0069
     17 C          62.2559   85.5121    9.5733 C.2     1  UNL1        0.2404
     18 O          63.3772   85.4121    8.5819 O.2     1  UNL1       -0.2733
     19 N          62.3260   84.7511   10.8641 N.am    1  UNL1       -0.3030
     20 H          61.5901   84.8167   11.5148 H       1  UNL1        0.1495
     21 C          63.5174   83.8902   11.1635 C.3     1  UNL1        0.0895
     22 C          63.7322   82.6160   10.4019 C.3     1  UNL1        0.0230
     23 C          62.9296   81.3950   10.7411 C.3     1  UNL1        0.0231
     24 C          63.0860   80.7438   12.0833 C.3     1  UNL1        0.0928
     25 N          63.8936   81.4161   13.1537 N.am    1  UNL1       -0.2707
     26 C          63.2054   82.1999   14.2317 C.2     1  UNL1        0.4020
     27 O          61.7096   82.3114   14.2393 O.2     1  UNL1       -0.2264
     28 H          64.8753   81.3429   13.1488 H       1  UNL1        0.1527
     29 O          64.0131   82.8722   15.3021 O.3     1  UNL1       -0.4291
     30 C          64.4529   84.2955   15.1272 C.3     1  UNL1        0.2447
     31 C          63.7542   85.3935   15.8733 C.ar    1  UNL1        0.0714
     32 C          64.0363   86.8614   15.7497 C.ar    1  UNL1        0.1053
     33 N          63.1073   87.5914   16.6739 N.ar    1  UNL1       -0.2350
     34 C          62.2510   86.5744   17.3686 C.ar    1  UNL1        0.1343
     35 S          62.6508   85.2161   16.8738 S.2     1  UNL1       -0.0652
     36 C          60.2599   86.1339    8.0309 C.3     1  UNL1        0.0270
     37 C          60.7603   85.1822    6.9851 C.3     1  UNL1        0.0022
     38 C          58.9548   86.8465    7.8337 C.3     1  UNL1        0.0022
@<TRIPOS>BOND
     1    14    15    1
     2    15    16    1
     3    15     9    1
     4     9    10   ar
     5    10    11   ar
     6    11     8    1
     7     8     2    1
     8     2     3    1
     9     2     4   am
    10     4     5    2
    11     4     6   am
    12     1     6    1
    13     1    17    1
    14    17    18    2
    15    17    19   am
    16    19    21    1
    17    21    22    1
    18    22    23    1
    19    23    24    1
    20    24    25    1
    21    25    26   am
    22    26    27    2
    23    26    29    1
    24    29    30    1
    25    30    31    1
    26    31    32   ar
    27    32    33   ar
    28    33    34   ar
    29    34    35   ar
    30     1    36    1
    31    36    37    1
    32    36    38    1
    33    11    12   ar
    34    12    13   ar
    35    13     9   ar
    36    35    31   ar
    37     6     7    1
    38    19    20    1
    39    25    28    1
@<TRIPOS>MOLECULE
*****
 38 39 0 0 0
SMALL
GASTEIGER

@<TRIPOS>ATOM
      1 C          61.8055   86.0471   10.4916 C.3     1  UNL1        0.1496
      2 N          61.5183   89.9083   11.3625 N.am    1  UNL1       -0.2567
      3 C          60.4489   89.8830   12.4140 C.3     1  UNL1        0.1168
      4 C          61.9705   88.6297   10.7217 C.2     1  UNL1        0.3046
      5 O          63.0399   88.6552    9.6702 O.2     1  UNL1       -0.2526
      6 N          61.3533   87.3258   11.1324 N.am    1  UNL1       -0.2824
      7 H          60.6514   87.3092   11.8225 H       1  UNL1        0.1514
      8 C          62.1355   91.2124   10.9518 C.3     1  UNL1        0.1413
      9 C          65.3411   91.9556   13.0102 C.ar    1  UNL1        0.0875
     10 N          63.9508   91.4025   12.9046 N.ar    1  UNL1       -0.2453
     11 C          63.4733   91.6141   11.4985 C.ar    1  UNL1        0.0858
     12 C          64.5685   92.2980   10.7350 C.ar    1  UNL1        0.0530
     13 S          65.7228   92.5090   11.6694 S.2     1  UNL1       -0.0705
     14 C          65.5916   92.2569   15.5786 C.3     1  UNL1        0.0069
     15 C          66.1990   91.9553   14.2407 C.3     1  UNL1        0.0465
     16 C          67.6643   91.6534   14.1332 C.3     1  UNL1        0.0069
     17 C          62.3994   84.9561   11.3324 C.2     1  UNL1        0.2404
     18 O          62.1471   84.9269   12.8107 O.2     1  UNL1       -0.2733
     19 N          63.2456   83.8942   10.6948 N.am    1  UNL1       -0.3030
     20 H          63.4112   83.9134    9.7245 H       1  UNL1        0.1495
     21 C          63.8395   82.8032   11.5355 C.3     1  UNL1        0.0895
     22 C          63.2468   81.4257   11.5046 C.3     1  UNL1        0.0230
     23 C          62.4574   80.9224   12.6767 C.3     1  UNL1        0.0231
     24 C          62.9304   81.1976   14.0732 C.3     1  UNL1        0.0928
     25 N          62.2821   82.2795   14.8853 N.am    1  UNL1       -0.2707
     26 C          63.0752   83.4829   15.3008 C.2     1  UNL1        0.4020
     27 O          64.5166   83.6046   14.9043 O.2     1  UNL1       -0.2264
     28 H          61.3360   82.1996   15.1455 H       1  UNL1        0.1527
     29 O          62.4268   84.5646   16.1128 O.3     1  UNL1       -0.4291
     30 C          63.2735   85.5756   16.8275 C.3     1  UNL1        0.2447
     31 C          63.4925   86.9315   16.2243 C.ar    1  UNL1        0.0714
     32 C          64.2189   87.2201   14.9441 C.ar    1  UNL1        0.1053
     33 N          64.1988   88.7037   14.7241 N.ar    1  UNL1       -0.2350
     34 C          63.4600   89.3320   15.8684 C.ar    1  UNL1        0.1343
     35 S          63.0235   88.2368   16.7955 S.2     1  UNL1       -0.0652
     36 C          61.6637   85.8595    9.0102 C.3     1  UNL1        0.0270
     37 C          60.3411   86.1041    8.3464 C.3     1  UNL1        0.0022
     38 C          62.8447   85.4272    8.1926 C.3     1  UNL1        0.0022
@<TRIPOS>BOND
     1    14    15    1
     2    15    16    1
     3    15     9    1
     4     9    10   ar
     5    10    11   ar
     6    11     8    1
     7     8     2    1
     8     2     3    1
     9     2     4   am
    10     4     5    2
    11     4     6   am
    12     1     6    1
    13     1    17    1
    14    17    18    2
    15    17    19   am
    16    19    21    1
    17    21    22    1
    18    22    23    1
    19    23    24    1
    20    24    25    1
    21    25    26   am
    22    26    27    2
    23    26    29    1
    24    29    30    1
    25    30    31    1
    26    31    32   ar
    27    32    33   ar
    28    33    34   ar
    29    34    35   ar
    30     1    36    1
    31    36    37    1
    32    36    38    1
    33    11    12   ar
    34    12    13   ar
    35    13     9   ar
    36    35    31   ar
    37     6     7    1
    38    19    20    1
    39    25    28    1
@<TRIPOS>MOLECULE
*****
 38 39 0 0 0
SMALL
GASTEIGER

@<TRIPOS>ATOM
      1 C          63.5933   83.6493   12.5990 C.3     1  UNL1        0.1496
      2 N          62.0096   86.3413   10.1506 N.am    1  UNL1       -0.2567
      3 C          62.7117   86.0059    8.8682 C.3     1  UNL1        0.1168
      4 C          62.3035   85.5558   11.3942 C.2     1  UNL1        0.3046
      5 O          61.6014   85.8913   12.6766 O.2     1  UNL1       -0.2526
      6 N          63.2994   84.4349   11.3554 N.am    1  UNL1       -0.2824
      7 H          63.7602   84.2147   10.5138 H       1  UNL1        0.1514
      8 C          61.0137   87.4623   10.1893 C.3     1  UNL1        0.1413
      9 C          59.4425   89.0687    7.0245 C.ar    1  UNL1        0.0875
     10 N          60.3831   89.1226    8.1917 N.ar    1  UNL1       -0.2453
     11 C          60.2551   87.8348    8.9500 C.ar    1  UNL1        0.0858
     12 C          59.2354   86.9849    8.2515 C.ar    1  UNL1        0.0530
     13 S          58.7332   87.7475    7.0615 S.2     1  UNL1       -0.0705
     14 C          60.4326   90.7531    5.3120 C.3     1  UNL1        0.0069
     15 C          59.2457   90.1467    6.0001 C.3     1  UNL1        0.0465
     16 C          57.8621   90.6182    5.6639 C.3     1  UNL1        0.0069
     17 C          64.1375   84.3425   13.8128 C.2     1  UNL1        0.2404
     18 O          65.6138   84.3413   14.0785 O.2     1  UNL1       -0.2733
     19 N          63.2054   85.0370   14.7610 N.am    1  UNL1       -0.3030
     20 H          62.2364   85.0377   14.5867 H       1  UNL1        0.1495
     21 C          63.7496   85.7302   15.9748 C.3     1  UNL1        0.0895
     22 C          62.8415   86.0538   17.1240 C.3     1  UNL1        0.0230
     23 C          62.2777   87.4363   17.2681 C.3     1  UNL1        0.0231
     24 C          63.1645   88.6313   17.0793 C.3     1  UNL1        0.0928
     25 N          63.4497   89.1430   15.6984 N.am    1  UNL1       -0.2707
     26 C          63.5950   90.6168   15.4598 C.2     1  UNL1        0.4020
     27 O          63.4550   91.5788   16.6020 O.2     1  UNL1       -0.2264
     28 H          63.5416   88.5116   14.9487 H       1  UNL1        0.1527
     29 O          63.8801   91.1284   14.0789 O.3     1  UNL1       -0.4291
     30 C          65.2958   91.3718   13.6468 C.3     1  UNL1        0.2447
     31 C          65.6078   92.4870   12.6933 C.ar    1  UNL1        0.0714
     32 C          66.4109   93.7148   13.0051 C.ar    1  UNL1        0.1053
     33 N          66.4708   94.5568   11.7652 N.ar    1  UNL1       -0.2350
     34 C          65.7047   93.8493   10.6870 C.ar    1  UNL1        0.1343
     35 S          65.1713   92.5701   11.2606 S.2     1  UNL1       -0.0652
     36 C          63.3431   82.1707   12.6289 C.3     1  UNL1        0.0270
     37 C          63.7732   81.3610   13.8160 C.3     1  UNL1        0.0022
     38 C          62.6627   81.5017   11.4715 C.3     1  UNL1        0.0022
@<TRIPOS>BOND
     1    14    15    1
     2    15    16    1
     3    15     9    1
     4     9    10   ar
     5    10    11   ar
     6    11     8    1
     7     8     2    1
     8     2     3    1
     9     2     4   am
    10     4     5    2
    11     4     6   am
    12     1     6    1
    13     1    17    1
    14    17    18    2
    15    17    19   am
    16    19    21    1
    17    21    22    1
    18    22    23    1
    19    23    24    1
    20    24    25    1
    21    25    26   am
    22    26    27    2
    23    26    29    1
    24    29    30    1
    25    30    31    1
    26    31    32   ar
    27    32    33   ar
    28    33    34   ar
    29    34    35   ar
    30     1    36    1
    31    36    37    1
    32    36    38    1
    33    11    12   ar
    34    12    13   ar
    35    13     9   ar
    36    35    31   ar
    37     6     7    1
    38    19    20    1
    39    25    28    1
@<TRIPOS>MOLECULE
*****
 38 39 0 0 0
SMALL
GASTEIGER

@<TRIPOS>ATOM
      1 C          61.9342   86.6925   10.2973 C.3     1  UNL1        0.1496
      2 N          63.2183   89.9084   12.2360 N.am    1  UNL1       -0.2567
      3 C          63.5915   89.3110   13.5603 C.3     1  UNL1        0.1168
      4 C          62.6659   89.0356   11.1484 C.2     1  UNL1        0.3046
      5 O          62.2927   89.6332    9.8241 O.2     1  UNL1       -0.2526
      6 N          62.4867   87.5654   11.3850 N.am    1  UNL1       -0.2824
      7 H          62.7316   87.1732   12.2541 H       1  UNL1        0.1514
      8 C          63.3976   91.3788   11.9994 C.3     1  UNL1        0.1413
      9 C          66.7599   92.8231   10.7056 C.ar    1  UNL1        0.0875
     10 N          65.3772   92.2979   10.4563 N.ar    1  UNL1       -0.2453
     11 C          64.7708   91.9414   11.7811 C.ar    1  UNL1        0.0858
     12 C          65.7788   92.2464   12.8493 C.ar    1  UNL1        0.0530
     13 S          67.0081   92.7913   12.1846 S.2     1  UNL1       -0.0705
     14 C          67.6798   94.7198    9.1870 C.3     1  UNL1        0.0069
     15 C          67.7250   93.2970    9.6596 C.3     1  UNL1        0.0465
     16 C          68.7353   92.3480    9.0863 C.3     1  UNL1        0.0069
     17 C          62.7493   85.5514    9.7649 C.2     1  UNL1        0.2404
     18 O          63.2120   85.5616    8.3381 O.2     1  UNL1       -0.2733
     19 N          63.1018   84.3999   10.6594 N.am    1  UNL1       -0.3030
     20 H          62.7981   84.3931   11.5959 H       1  UNL1        0.1495
     21 C          63.9168   83.2587   10.1270 C.3     1  UNL1        0.0895
     22 C          63.5334   81.8461   10.4548 C.3     1  UNL1        0.0230
     23 C          62.7011   81.5574   11.6688 C.3     1  UNL1        0.0231
     24 C          63.3622   81.1454   12.9507 C.3     1  UNL1        0.0928
     25 N          64.3249   82.0735   13.6302 N.am    1  UNL1       -0.2707
     26 C          63.9393   83.5010   13.8825 C.2     1  UNL1        0.4020
     27 O          62.5911   84.0004   13.4554 O.2     1  UNL1       -0.2264
     28 H          65.2099   81.7458   13.9106 H       1  UNL1        0.1527
     29 O          64.9021   84.4290   14.5621 O.3     1  UNL1       -0.4291
     30 C          64.5281   85.8639   14.7878 C.3     1  UNL1        0.2447
     31 C          63.6590   86.2384   15.9518 C.ar    1  UNL1        0.0714
     32 C          62.7902   85.3037   16.7400 C.ar    1  UNL1        0.1053
     33 N          62.1005   86.1008   17.8071 N.ar    1  UNL1       -0.2350
     34 C          62.5432   87.5282   17.6784 C.ar    1  UNL1        0.1343
     35 S          63.5064   87.6132   16.5318 S.2     1  UNL1       -0.0652
     36 C          60.5669   86.9606    9.7422 C.3     1  UNL1        0.0270
     37 C          59.6178   87.8537   10.4849 C.3     1  UNL1        0.0022
     38 C          60.1486   86.3358    8.4443 C.3     1  UNL1        0.0022
@<TRIPOS>BOND
     1    14    15    1
     2    15    16    1
     3    15     9    1
     4     9    10   ar
     5    10    11   ar
     6    11     8    1
     7     8     2    1
     8     2     3    1
     9     2     4   am
    10     4     5    2
    11     4     6   am
    12     1     6    1
    13     1    17    1
    14    17    18    2
    15    17    19   am
    16    19    21    1
    17    21    22    1
    18    22    23    1
    19    23    24    1
    20    24    25    1
    21    25    26   am
    22    26    27    2
    23    26    29    1
    24    29    30    1
    25    30    31    1
    26    31    32   ar
    27    32    33   ar
    28    33    34   ar
    29    34    35   ar
    30     1    36    1
    31    36    37    1
    32    36    38    1
    33    11    12   ar
    34    12    13   ar
    35    13     9   ar
    36    35    31   ar
    37     6     7    1
    38    19    20    1
    39    25    28    1
@<TRIPOS>MOLECULE
*****
 38 39 0 0 0
SMALL
GASTEIGER

@<TRIPOS>ATOM
      1 C          63.3968   83.2211   12.7980 C.3     1  UNL1        0.1496
      2 N          62.6951   85.3010    9.4917 N.am    1  UNL1       -0.2567
      3 C          63.6485   84.6457    8.5369 C.3     1  UNL1        0.1168
      4 C          62.6112   84.8261   10.9120 C.2     1  UNL1        0.3046
      5 O          61.6578   85.4814   11.8668 O.2     1  UNL1       -0.2526
      6 N          63.4807   83.6960   11.3776 N.am    1  UNL1       -0.2824
      7 H          64.1064   83.2659   10.7509 H       1  UNL1        0.1514
      8 C          61.8257   86.4311    9.0261 C.3     1  UNL1        0.1413
      9 C          60.2369   89.0811   11.3753 C.ar    1  UNL1        0.0875
     10 N          60.1134   87.8966   10.4633 N.ar    1  UNL1       -0.2453
     11 C          61.4850   87.5510    9.9641 C.ar    1  UNL1        0.0858
     12 C          62.4562   88.5219   10.5675 C.ar    1  UNL1        0.0530
     13 S          61.6848   89.4675   11.4397 S.2     1  UNL1       -0.0705
     14 C          58.3230   89.0117   13.1310 C.3     1  UNL1        0.0069
     15 C          59.1102   89.7599   12.0963 C.3     1  UNL1        0.0465
     16 C          58.7707   91.1869   11.7827 C.3     1  UNL1        0.0069
     17 C          64.1017   83.9778   13.8845 C.2     1  UNL1        0.2404
     18 O          65.4255   83.4939   14.3981 O.2     1  UNL1       -0.2733
     19 N          63.4829   85.2183   14.4575 N.am    1  UNL1       -0.3030
     20 H          62.6142   85.5359   14.1205 H       1  UNL1        0.1495
     21 C          64.1879   85.9750   15.5441 C.3     1  UNL1        0.0895
     22 C          63.5139   86.1902   16.8667 C.3     1  UNL1        0.0230
     23 C          62.5096   87.2928   17.0261 C.3     1  UNL1        0.0231
     24 C          62.9465   88.7247   16.9319 C.3     1  UNL1        0.0928
     25 N          63.2751   89.3223   15.5959 N.am    1  UNL1       -0.2707
     26 C          63.5639   90.7897   15.4812 C.2     1  UNL1        0.4020
     27 O          63.5242   91.6596   16.7024 O.2     1  UNL1       -0.2264
     28 H          63.3012   88.7513   14.7942 H       1  UNL1        0.1527
     29 O          63.8925   91.3872   14.1451 O.3     1  UNL1       -0.4291
     30 C          65.2965   91.3252   13.6207 C.3     1  UNL1        0.2447
     31 C          66.4073   92.0003   14.3694 C.ar    1  UNL1        0.0714
     32 C          67.5329   91.3139   15.0847 C.ar    1  UNL1        0.1053
     33 N          68.4087   92.3696   15.6916 N.ar    1  UNL1       -0.2350
     34 C          67.8243   93.7085   15.3514 C.ar    1  UNL1        0.1343
     35 S          66.5874   93.4803   14.5343 S.2     1  UNL1       -0.0652
     36 C          62.6082   81.9897   13.1318 C.3     1  UNL1        0.0270
     37 C          61.7105   81.9768   14.3334 C.3     1  UNL1        0.0022
     38 C          62.7172   80.7711   12.2640 C.3     1  UNL1        0.0022
@<TRIPOS>BOND
     1    14    15    1
     2    15    16    1
     3    15     9    1
     4     9    10   ar
     5    10    11   ar
     6    11     8    1
     7     8     2    1
     8     2     3    1
     9     2     4   am
    10     4     5    2
    11     4     6   am
    12     1     6    1
    13     1    17    1
    14    17    18    2
    15    17    19   am
    16    19    21    1
    17    21    22    1
    18    22    23    1
    19    23    24    1
    20    24    25    1
    21    25    26   am
    22    26    27    2
    23    26    29    1
    24    29    30    1
    25    30    31    1
    26    31    32   ar
    27    32    33   ar
    28    33    34   ar
    29    34    35   ar
    30     1    36    1
    31    36    37    1
    32    36    38    1
    33    11    12   ar
    34    12    13   ar
    35    13     9   ar
    36    35    31   ar
    37     6     7    1
    38    19    20    1
    39    25    28    1
