@<TRIPOS>MOLECULE
*****
 30 32 0 0 0
SMALL
GASTEIGER

@<TRIPOS>ATOM
      1 N          63.6115   87.3815   16.3150 N.am    1  UNL1       -0.2809
      2 C          63.6583   88.6305   15.4856 C.2     1  UNL1        0.2707
      3 O          63.7119   88.5359   13.9896 O.2     1  UNL1       -0.2707
      4 H          63.5764   87.4436   17.2969 H       1  UNL1        0.1550
      5 C          63.6319   83.3505   14.3147 C.ar    1  UNL1       -0.0221
      6 C          64.7198   84.3400   14.0190 C.ar    1  UNL1       -0.0030
      7 C          64.7131   85.6837   14.6858 C.ar    1  UNL1        0.0143
      8 C          63.6183   86.0378   15.6482 C.ar    1  UNL1        0.0504
      9 C          62.5304   85.0483   15.9438 C.ar    1  UNL1        0.0143
     10 C          62.5372   83.7047   15.2770 C.ar    1  UNL1       -0.0030
     11 C          63.6387   82.0069   13.6479 C.3     1  UNL1        0.0264
     12 C          62.8340   81.7840   12.4017 C.3     1  UNL1        0.0047
     13 C          63.5189   81.7157   11.0689 C.3     1  UNL1        0.0003
     14 C          63.4467   84.1094   10.0613 C.3     1  UNL1        0.0000
     15 C          64.2319   82.9201   10.5296 C.3     1  UNL1        0.0000
     16 C          63.6515   89.9742   16.1524 C.3     1  UNL1        0.2897
     17 O          63.6867   91.2233   15.3228 O.3     1  UNL1       -0.4655
     18 C          64.9946   91.7411   14.8019 C.ar    1  UNL1        0.1419
     19 C          66.1098   92.0554   15.7545 C.ar    1  UNL1        0.0516
     20 C          67.4176   92.5733   15.2337 C.ar    1  UNL1        0.0624
     21 C          68.5328   92.8876   16.1864 C.3     1  UNL1        0.0522
     22 N          67.6104   92.7768   13.7601 N.ar    1  UNL1       -0.2495
     23 C          66.4952   92.4624   12.8074 C.ar    1  UNL1        0.0840
     24 C          66.6879   92.6659   11.3338 C.ar    1  UNL1        0.0223
     25 C          65.5728   92.3516   10.3812 C.ar    1  UNL1        0.0384
     26 C          64.2649   91.8338   10.9020 C.ar    1  UNL1        0.1389
     27 C          64.0722   91.6303   12.3756 C.ar    1  UNL1        0.0414
     28 C          65.1873   91.9446   13.3282 C.ar    1  UNL1        0.0547
     29 O          63.1497   91.5195    9.9493 O.3     1  UNL1       -0.4714
     30 C          62.3312   90.2766   10.1366 C.3     1  UNL1        0.2525
@<TRIPOS>BOND
     1    14    15    1
     2    15    13    1
     3    13    12    1
     4    12    11    1
     5    11     5    1
     6     5     6   ar
     7     6     7   ar
     8     7     8   ar
     9     8     1    1
    10     1     2   am
    11     2     3    2
    12     2    16    1
    13    16    17    1
    14    17    18    1
    15    18    19   ar
    16    19    20   ar
    17    20    21    1
    18    20    22   ar
    19    22    23   ar
    20    23    24   ar
    21    24    25   ar
    22    25    26   ar
    23    26    29    1
    24    29    30    1
    25    26    27   ar
    26    27    28   ar
    27     8     9   ar
    28     9    10   ar
    29    10     5   ar
    30    28    18   ar
    31    28    23   ar
    32     1     4    1
@<TRIPOS>MOLECULE
*****
 30 32 0 0 0
SMALL
GASTEIGER

@<TRIPOS>ATOM
      1 N          63.8263   86.9443   14.1420 N.am    1  UNL1       -0.2809
      2 C          63.4037   87.1312   15.5691 C.2     1  UNL1        0.2707
      3 O          62.8970   85.9622   16.3606 O.2     1  UNL1       -0.2707
      4 H          64.1589   87.7116   13.6226 H       1  UNL1        0.1550
      5 C          63.5737   82.8761   12.2353 C.ar    1  UNL1       -0.0221
      6 C          62.6448   83.9690   11.7964 C.ar    1  UNL1       -0.0030
      7 C          62.7289   85.3251   12.4320 C.ar    1  UNL1        0.0143
      8 C          63.7421   85.5882   13.5064 C.ar    1  UNL1        0.0504
      9 C          64.6710   84.4953   13.9452 C.ar    1  UNL1        0.0143
     10 C          64.5868   83.1392   13.3097 C.ar    1  UNL1       -0.0030
     11 C          63.4896   81.5200   11.5997 C.3     1  UNL1        0.0264
     12 C          62.6389   80.4520   12.2209 C.3     1  UNL1        0.0047
     13 C          62.3167   80.5068   13.6849 C.3     1  UNL1        0.0003
     14 C          59.7812   80.2942   14.2104 C.3     1  UNL1        0.0000
     15 C          61.0297   81.1232   14.1471 C.3     1  UNL1        0.0000
     16 C          63.4879   88.4873   16.2047 C.3     1  UNL1        0.2897
     17 O          62.9116   89.6814   15.5034 O.3     1  UNL1       -0.4655
     18 C          63.8081   90.6010   14.7283 C.ar    1  UNL1        0.1419
     19 C          64.8956   91.3573   15.4321 C.ar    1  UNL1        0.0516
     20 C          65.7921   92.2769   14.6570 C.ar    1  UNL1        0.0624
     21 C          66.8796   93.0333   15.3609 C.3     1  UNL1        0.0522
     22 N          65.6011   92.4401   13.1783 N.ar    1  UNL1       -0.2495
     23 C          64.5136   91.6838   12.4744 C.ar    1  UNL1        0.0840
     24 C          64.3226   91.8470   10.9957 C.ar    1  UNL1        0.0223
     25 C          63.2351   91.0907   10.2919 C.ar    1  UNL1        0.0384
     26 C          62.3386   90.1711   11.0670 C.ar    1  UNL1        0.1389
     27 C          62.5296   90.0079   12.5457 C.ar    1  UNL1        0.0414
     28 C          63.6171   90.7642   13.2495 C.ar    1  UNL1        0.0547
     29 O          61.2511   89.4148   10.3631 O.3     1  UNL1       -0.4714
     30 C          60.4249   88.4146   11.1161 C.3     1  UNL1        0.2525
@<TRIPOS>BOND
     1    14    15    1
     2    15    13    1
     3    13    12    1
     4    12    11    1
     5    11     5    1
     6     5     6   ar
     7     6     7   ar
     8     7     8   ar
     9     8     1    1
    10     1     2   am
    11     2     3    2
    12     2    16    1
    13    16    17    1
    14    17    18    1
    15    18    19   ar
    16    19    20   ar
    17    20    21    1
    18    20    22   ar
    19    22    23   ar
    20    23    24   ar
    21    24    25   ar
    22    25    26   ar
    23    26    29    1
    24    29    30    1
    25    26    27   ar
    26    27    28   ar
    27     8     9   ar
    28     9    10   ar
    29    10     5   ar
    30    28    18   ar
    31    28    23   ar
    32     1     4    1
@<TRIPOS>MOLECULE
*****
 30 32 0 0 0
SMALL
GASTEIGER

@<TRIPOS>ATOM
      1 N          62.6470   89.1376   11.8292 N.am    1  UNL1       -0.2809
      2 C          61.3525   89.2056   11.0744 C.2     1  UNL1        0.2707
      3 O          60.9570   90.4729   10.3764 O.2     1  UNL1       -0.2707
      4 H          62.9066   88.3057   12.2873 H       1  UNL1        0.1550
      5 C          65.3440   92.7358   11.9992 C.ar    1  UNL1       -0.0221
      6 C          65.1304   91.9000   13.2264 C.ar    1  UNL1       -0.0030
      7 C          64.2314   90.7006   13.1697 C.ar    1  UNL1        0.0143
      8 C          63.5460   90.3370   11.8859 C.ar    1  UNL1        0.0504
      9 C          63.7596   91.1728   10.6588 C.ar    1  UNL1        0.0143
     10 C          64.6586   92.3722   10.7155 C.ar    1  UNL1       -0.0030
     11 C          66.2430   93.9353   12.0559 C.3     1  UNL1        0.0264
     12 C          66.1885   94.9655   10.9669 C.3     1  UNL1        0.0047
     13 C          67.2947   95.0489    9.9574 C.3     1  UNL1        0.0003
     14 C          68.4832   92.8328    9.3043 C.3     1  UNL1        0.0000
     15 C          67.5085   93.9273    8.9847 C.3     1  UNL1        0.0000
     16 C          60.4535   88.0061   11.0178 C.3     1  UNL1        0.2897
     17 O          60.8967   86.7074   11.6234 O.3     1  UNL1       -0.4655
     18 C          61.7917   85.7856   10.8492 C.ar    1  UNL1        0.1419
     19 C          61.8398   85.8689    9.3524 C.ar    1  UNL1        0.0516
     20 C          62.7347   84.9471    8.5782 C.ar    1  UNL1        0.0624
     21 C          62.7828   85.0305    7.0813 C.3     1  UNL1        0.0522
     22 N          63.5816   83.9420    9.3010 N.ar    1  UNL1       -0.2495
     23 C          63.5336   83.8586   10.7979 C.ar    1  UNL1        0.0840
     24 C          64.3805   82.8535   11.5207 C.ar    1  UNL1        0.0223
     25 C          64.3324   82.7701   13.0175 C.ar    1  UNL1        0.0384
     26 C          63.4374   83.6919   13.7917 C.ar    1  UNL1        0.1389
     27 C          62.5905   84.6971   13.0689 C.ar    1  UNL1        0.0414
     28 C          62.6386   84.7804   11.5721 C.ar    1  UNL1        0.0547
     29 O          63.3893   83.6085   15.2886 O.3     1  UNL1       -0.4714
     30 C          62.6193   84.6297   16.0724 C.3     1  UNL1        0.2525
@<TRIPOS>BOND
     1    14    15    1
     2    15    13    1
     3    13    12    1
     4    12    11    1
     5    11     5    1
     6     5     6   ar
     7     6     7   ar
     8     7     8   ar
     9     8     1    1
    10     1     2   am
    11     2     3    2
    12     2    16    1
    13    16    17    1
    14    17    18    1
    15    18    19   ar
    16    19    20   ar
    17    20    21    1
    18    20    22   ar
    19    22    23   ar
    20    23    24   ar
    21    24    25   ar
    22    25    26   ar
    23    26    29    1
    24    29    30    1
    25    26    27   ar
    26    27    28   ar
    27     8     9   ar
    28     9    10   ar
    29    10     5   ar
    30    28    18   ar
    31    28    23   ar
    32     1     4    1
@<TRIPOS>MOLECULE
*****
 30 32 0 0 0
SMALL
GASTEIGER

@<TRIPOS>ATOM
      1 N          62.6302   87.2635   11.8095 N.am    1  UNL1       -0.2809
      2 C          61.5528   87.9602   11.0324 C.2     1  UNL1        0.2707
      3 O          60.5570   87.1592   10.2471 O.2     1  UNL1       -0.2707
      4 H          63.2838   87.7892   12.3249 H       1  UNL1        0.1550
      5 C          62.8747   82.7702   11.7849 C.ar    1  UNL1       -0.0221
      6 C          62.9199   83.5309   10.4928 C.ar    1  UNL1       -0.0030
      7 C          62.8384   85.0286   10.5010 C.ar    1  UNL1        0.0143
      8 C          62.7117   85.7657   11.8013 C.ar    1  UNL1        0.0504
      9 C          62.6665   85.0051   13.0933 C.ar    1  UNL1        0.0143
     10 C          62.7480   83.5073   13.0851 C.ar    1  UNL1       -0.0030
     11 C          62.9562   81.2724   11.7767 C.3     1  UNL1        0.0264
     12 C          63.1072   80.5225   13.0670 C.3     1  UNL1        0.0047
     13 C          61.9089   79.8923   13.7128 C.3     1  UNL1        0.0003
     14 C          59.3799   80.2168   14.2113 C.3     1  UNL1        0.0000
     15 C          60.7810   80.7522   14.2011 C.3     1  UNL1        0.0000
     16 C          61.4713   89.4580   11.0406 C.3     1  UNL1        0.2897
     17 O          62.7260   90.2777   10.9806 O.3     1  UNL1       -0.4655
     18 C          63.4198   90.6808   12.2480 C.ar    1  UNL1        0.1419
     19 C          63.0251   90.0525   13.5516 C.ar    1  UNL1        0.0516
     20 C          63.7189   90.4555   14.8189 C.ar    1  UNL1        0.0624
     21 C          63.3241   89.8271   16.1226 C.3     1  UNL1        0.0522
     22 N          64.8075   91.4869   14.7827 N.ar    1  UNL1       -0.2495
     23 C          65.2022   92.1152   13.4791 C.ar    1  UNL1        0.0840
     24 C          66.2908   93.1466   13.4428 C.ar    1  UNL1        0.0223
     25 C          66.6855   93.7749   12.1392 C.ar    1  UNL1        0.0384
     26 C          65.9917   93.3718   10.8719 C.ar    1  UNL1        0.1389
     27 C          64.9032   92.3405   10.9081 C.ar    1  UNL1        0.0414
     28 C          64.5084   91.7122   12.2117 C.ar    1  UNL1        0.0547
     29 O          66.3865   94.0002    9.5683 O.3     1  UNL1       -0.4714
     30 C          67.8155   93.9523    9.1149 C.3     1  UNL1        0.2525
@<TRIPOS>BOND
     1    14    15    1
     2    15    13    1
     3    13    12    1
     4    12    11    1
     5    11     5    1
     6     5     6   ar
     7     6     7   ar
     8     7     8   ar
     9     8     1    1
    10     1     2   am
    11     2     3    2
    12     2    16    1
    13    16    17    1
    14    17    18    1
    15    18    19   ar
    16    19    20   ar
    17    20    21    1
    18    20    22   ar
    19    22    23   ar
    20    23    24   ar
    21    24    25   ar
    22    25    26   ar
    23    26    29    1
    24    29    30    1
    25    26    27   ar
    26    27    28   ar
    27     8     9   ar
    28     9    10   ar
    29    10     5   ar
    30    28    18   ar
    31    28    23   ar
    32     1     4    1
@<TRIPOS>MOLECULE
*****
 30 32 0 0 0
SMALL
GASTEIGER

@<TRIPOS>ATOM
      1 N          62.6118   88.8405   11.5709 N.am    1  UNL1       -0.2809
      2 C          61.2448   89.2519   11.1104 C.2     1  UNL1        0.2707
      3 O          60.7644   90.6533   11.3455 O.2     1  UNL1       -0.2707
      4 H          62.9271   87.9207   11.4166 H       1  UNL1        0.1550
      5 C          65.2715   91.8105   13.6577 C.ar    1  UNL1       -0.0221
      6 C          64.7856   92.0873   12.2658 C.ar    1  UNL1       -0.0030
      7 C          63.8990   91.0973   11.5702 C.ar    1  UNL1        0.0143
      8 C          63.4984   89.8305   12.2665 C.ar    1  UNL1        0.0504
      9 C          63.9843   89.5538   13.6583 C.ar    1  UNL1        0.0143
     10 C          64.8709   90.5438   14.3539 C.ar    1  UNL1       -0.0030
     11 C          66.1581   92.8006   14.3533 C.3     1  UNL1        0.0264
     12 C          66.4095   92.6764   15.8269 C.3     1  UNL1        0.0047
     13 C          67.7242   92.1505   16.3218 C.3     1  UNL1        0.0003
     14 C          69.2194   94.2453   15.9662 C.3     1  UNL1        0.0000
     15 C          69.0059   92.7656   15.8435 C.3     1  UNL1        0.0000
     16 C          60.3582   88.2619   10.4148 C.3     1  UNL1        0.2897
     17 O          60.4388   86.8060   10.7668 O.3     1  UNL1       -0.4655
     18 C          61.4316   85.9206   10.0736 C.ar    1  UNL1        0.1419
     19 C          61.4412   85.8331    8.5763 C.ar    1  UNL1        0.0516
     20 C          62.4340   84.9477    7.8831 C.ar    1  UNL1        0.0624
     21 C          62.4436   84.8602    6.3856 C.3     1  UNL1        0.0522
     22 N          63.4171   84.1499    8.6873 N.ar    1  UNL1       -0.2495
     23 C          63.4076   84.2374   10.1847 C.ar    1  UNL1        0.0840
     24 C          64.3907   83.4395   10.9889 C.ar    1  UNL1        0.0223
     25 C          64.3811   83.5270   12.4863 C.ar    1  UNL1        0.0384
     26 C          63.3883   84.4124   13.1795 C.ar    1  UNL1        0.1389
     27 C          62.4051   85.2103   12.3753 C.ar    1  UNL1        0.0414
     28 C          62.4148   85.1228   10.8779 C.ar    1  UNL1        0.0547
     29 O          63.3787   84.4999   14.6770 O.3     1  UNL1       -0.4714
     30 C          63.9979   85.6812   15.3632 C.3     1  UNL1        0.2525
@<TRIPOS>BOND
     1    14    15    1
     2    15    13    1
     3    13    12    1
     4    12    11    1
     5    11     5    1
     6     5     6   ar
     7     6     7   ar
     8     7     8   ar
     9     8     1    1
    10     1     2   am
    11     2     3    2
    12     2    16    1
    13    16    17    1
    14    17    18    1
    15    18    19   ar
    16    19    20   ar
    17    20    21    1
    18    20    22   ar
    19    22    23   ar
    20    23    24   ar
    21    24    25   ar
    22    25    26   ar
    23    26    29    1
    24    29    30    1
    25    26    27   ar
    26    27    28   ar
    27     8     9   ar
    28     9    10   ar
    29    10     5   ar
    30    28    18   ar
    31    28    23   ar
    32     1     4    1
@<TRIPOS>MOLECULE
*****
 30 32 0 0 0
SMALL
GASTEIGER

@<TRIPOS>ATOM
      1 N          62.3723   85.3066   10.2002 N.am    1  UNL1       -0.2809
      2 C          63.2357   84.4067    9.3666 C.2     1  UNL1        0.2707
      3 O          63.3227   84.6137    7.8835 O.2     1  UNL1       -0.2707
      4 H          62.3152   85.1707   11.1736 H       1  UNL1        0.1550
      5 C          60.0433   88.6275    8.2514 C.ar    1  UNL1       -0.0221
      6 C          59.7433   87.1987    7.9070 C.ar    1  UNL1       -0.0030
      7 C          60.5196   86.0917    8.5566 C.ar    1  UNL1        0.0143
      8 C          61.5960   86.4136    9.5506 C.ar    1  UNL1        0.0504
      9 C          61.8959   87.8423    9.8950 C.ar    1  UNL1        0.0143
     10 C          61.1196   88.9493    9.2454 C.ar    1  UNL1       -0.0030
     11 C          59.2670   89.7345    7.6019 C.3     1  UNL1        0.0264
     12 C          59.1297   89.7783    6.1087 C.3     1  UNL1        0.0047
     13 C          59.4954   91.0245    5.3582 C.3     1  UNL1        0.0003
     14 C          56.9852   91.5057    4.8922 C.3     1  UNL1        0.0000
     15 C          58.4334   91.8126    4.6504 C.3     1  UNL1        0.0000
     16 C          64.0120   83.2997   10.0162 C.3     1  UNL1        0.2897
     17 O          64.5589   83.4798   11.4012 O.3     1  UNL1       -0.4655
     18 C          63.7384   83.0753   12.5900 C.ar    1  UNL1        0.1419
     19 C          63.0426   81.7465   12.6040 C.ar    1  UNL1        0.0516
     20 C          62.2221   81.3421   13.7928 C.ar    1  UNL1        0.0624
     21 C          61.5262   80.0133   13.8067 C.3     1  UNL1        0.0522
     22 N          62.0974   82.2663   14.9676 N.ar    1  UNL1       -0.2495
     23 C          62.7933   83.5951   14.9536 C.ar    1  UNL1        0.0840
     24 C          62.6687   84.5193   16.1284 C.ar    1  UNL1        0.0223
     25 C          63.3645   85.8481   16.1144 C.ar    1  UNL1        0.0384
     26 C          64.1850   86.2526   14.9257 C.ar    1  UNL1        0.1389
     27 C          64.3096   85.3283   13.7509 C.ar    1  UNL1        0.0414
     28 C          63.6138   83.9996   13.7648 C.ar    1  UNL1        0.0547
     29 O          64.8809   87.5814   14.9117 O.3     1  UNL1       -0.4714
     30 C          64.1555   88.8028   14.4302 C.3     1  UNL1        0.2525
@<TRIPOS>BOND
     1    14    15    1
     2    15    13    1
     3    13    12    1
     4    12    11    1
     5    11     5    1
     6     5     6   ar
     7     6     7   ar
     8     7     8   ar
     9     8     1    1
    10     1     2   am
    11     2     3    2
    12     2    16    1
    13    16    17    1
    14    17    18    1
    15    18    19   ar
    16    19    20   ar
    17    20    21    1
    18    20    22   ar
    19    22    23   ar
    20    23    24   ar
    21    24    25   ar
    22    25    26   ar
    23    26    29    1
    24    29    30    1
    25    26    27   ar
    26    27    28   ar
    27     8     9   ar
    28     9    10   ar
    29    10     5   ar
    30    28    18   ar
    31    28    23   ar
    32     1     4    1
@<TRIPOS>MOLECULE
*****
 30 32 0 0 0
SMALL
GASTEIGER

@<TRIPOS>ATOM
      1 N          62.3470   87.7004   11.6717 N.am    1  UNL1       -0.2809
      2 C          62.3112   88.0974   10.2256 C.2     1  UNL1        0.2707
      3 O          62.6295   87.0881    9.1626 O.2     1  UNL1       -0.2707
      4 H          62.1380   88.3629   12.3693 H       1  UNL1        0.1550
      5 C          63.4093   83.4814   12.8210 C.ar    1  UNL1       -0.0221
      6 C          63.9331   84.6328   13.6271 C.ar    1  UNL1       -0.0030
      7 C          63.5790   86.0392   13.2441 C.ar    1  UNL1        0.0143
      8 C          62.7011   86.2941   12.0548 C.ar    1  UNL1        0.0504
      9 C          62.1773   85.1427   11.2487 C.ar    1  UNL1        0.0143
     10 C          62.5314   83.7363   11.6318 C.ar    1  UNL1       -0.0030
     11 C          63.7634   82.0750   13.2041 C.3     1  UNL1        0.0264
     12 C          62.7131   81.0042   13.1805 C.3     1  UNL1        0.0047
     13 C          61.4261   81.1994   13.9258 C.3     1  UNL1        0.0003
     14 C          59.0226   80.2962   14.3220 C.3     1  UNL1        0.0000
     15 C          60.4870   80.0454   14.1159 C.3     1  UNL1        0.0000
     16 C          61.9571   89.5038    9.8425 C.3     1  UNL1        0.2897
     17 O          61.9496   90.5850   10.8821 O.3     1  UNL1       -0.4655
     18 C          63.2430   91.1785   11.3562 C.ar    1  UNL1        0.1419
     19 C          64.0999   91.9640   10.4082 C.ar    1  UNL1        0.0516
     20 C          65.3934   92.5575   10.8824 C.ar    1  UNL1        0.0624
     21 C          66.2503   93.3429    9.9343 C.3     1  UNL1        0.0522
     22 N          65.8298   92.3656   12.3046 N.ar    1  UNL1       -0.2495
     23 C          64.9729   91.5801   13.2527 C.ar    1  UNL1        0.0840
     24 C          65.4094   91.3882   14.6748 C.ar    1  UNL1        0.0223
     25 C          64.5525   90.6028   15.6228 C.ar    1  UNL1        0.0384
     26 C          63.2590   90.0093   15.1487 C.ar    1  UNL1        0.1389
     27 C          62.8226   90.2012   13.7265 C.ar    1  UNL1        0.0414
     28 C          63.6795   90.9866   12.7785 C.ar    1  UNL1        0.0547
     29 O          62.4021   89.2238   16.0967 O.3     1  UNL1       -0.4714
     30 C          63.0333   88.2503   17.0473 C.3     1  UNL1        0.2525
@<TRIPOS>BOND
     1    14    15    1
     2    15    13    1
     3    13    12    1
     4    12    11    1
     5    11     5    1
     6     5     6   ar
     7     6     7   ar
     8     7     8   ar
     9     8     1    1
    10     1     2   am
    11     2     3    2
    12     2    16    1
    13    16    17    1
    14    17    18    1
    15    18    19   ar
    16    19    20   ar
    17    20    21    1
    18    20    22   ar
    19    22    23   ar
    20    23    24   ar
    21    24    25   ar
    22    25    26   ar
    23    26    29    1
    24    29    30    1
    25    26    27   ar
    26    27    28   ar
    27     8     9   ar
    28     9    10   ar
    29    10     5   ar
    30    28    18   ar
    31    28    23   ar
    32     1     4    1
@<TRIPOS>MOLECULE
*****
 30 32 0 0 0
SMALL
GASTEIGER

@<TRIPOS>ATOM
      1 N          58.8840   88.8324    6.9432 N.am    1  UNL1       -0.2809
      2 C          59.6252   88.7659    8.2456 C.2     1  UNL1        0.2707
      3 O          60.6205   89.8315    8.5973 O.2     1  UNL1       -0.2707
      4 H          58.2307   88.1330    6.7123 H       1  UNL1        0.1550
      5 C          59.6466   92.2286    4.0912 C.ar    1  UNL1       -0.0221
      6 C          60.7867   91.3762    4.5644 C.ar    1  UNL1       -0.0030
      7 C          60.5324   90.2441    5.5150 C.ar    1  UNL1        0.0143
      8 C          59.1382   89.9645    5.9925 C.ar    1  UNL1        0.0504
      9 C          57.9982   90.8168    5.5193 C.ar    1  UNL1        0.0143
     10 C          58.2525   91.9489    4.5687 C.ar    1  UNL1       -0.0030
     11 C          59.9008   93.3607    3.1405 C.3     1  UNL1        0.0264
     12 C          59.9250   93.1076    1.6622 C.3     1  UNL1        0.0047
     13 C          61.1291   92.4756    1.0291 C.3     1  UNL1        0.0003
     14 C          63.4290   92.3393    2.2298 C.3     1  UNL1        0.0000
     15 C          62.4950   93.0390    1.2874 C.3     1  UNL1        0.0000
     16 C          59.3710   87.6338    9.1963 C.3     1  UNL1        0.2897
     17 O          60.4794   87.1239   10.0688 O.3     1  UNL1       -0.4655
     18 C          61.4446   86.1062    9.5372 C.ar    1  UNL1        0.1419
     19 C          61.5339   85.8566    8.0608 C.ar    1  UNL1        0.0516
     20 C          62.4991   84.8390    7.5292 C.ar    1  UNL1        0.0624
     21 C          62.5884   84.5894    6.0527 C.3     1  UNL1        0.0522
     22 N          63.3752   84.0709    8.4739 N.ar    1  UNL1       -0.2495
     23 C          63.2859   84.3204    9.9504 C.ar    1  UNL1        0.0840
     24 C          64.1619   83.5523   10.8951 C.ar    1  UNL1        0.0223
     25 C          64.0727   83.8019   12.3715 C.ar    1  UNL1        0.0384
     26 C          63.1074   84.8196   12.9031 C.ar    1  UNL1        0.1389
     27 C          62.2314   85.5877   11.9584 C.ar    1  UNL1        0.0414
     28 C          62.3207   85.3381   10.4820 C.ar    1  UNL1        0.0547
     29 O          63.0182   85.0691   14.3796 O.3     1  UNL1       -0.4714
     30 C          62.2987   84.0935   15.2630 C.3     1  UNL1        0.2525
@<TRIPOS>BOND
     1    14    15    1
     2    15    13    1
     3    13    12    1
     4    12    11    1
     5    11     5    1
     6     5     6   ar
     7     6     7   ar
     8     7     8   ar
     9     8     1    1
    10     1     2   am
    11     2     3    2
    12     2    16    1
    13    16    17    1
    14    17    18    1
    15    18    19   ar
    16    19    20   ar
    17    20    21    1
    18    20    22   ar
    19    22    23   ar
    20    23    24   ar
    21    24    25   ar
    22    25    26   ar
    23    26    29    1
    24    29    30    1
    25    26    27   ar
    26    27    28   ar
    27     8     9   ar
    28     9    10   ar
    29    10     5   ar
    30    28    18   ar
    31    28    23   ar
    32     1     4    1
@<TRIPOS>MOLECULE
*****
 30 32 0 0 0
SMALL
GASTEIGER

@<TRIPOS>ATOM
      1 N          59.1201   88.7121    7.0389 N.am    1  UNL1       -0.2809
      2 C          59.8923   88.6986    8.3249 C.2     1  UNL1        0.2707
      3 O          60.8093   89.8371    8.6610 O.2     1  UNL1       -0.2707
      4 H          58.5182   87.9649    6.8183 H       1  UNL1        0.1550
      5 C          59.5549   92.1677    4.1895 C.ar    1  UNL1       -0.0221
      6 C          60.7638   91.3852    4.6093 C.ar    1  UNL1       -0.0030
      7 C          60.6189   90.2333    5.5592 C.ar    1  UNL1        0.0143
      8 C          59.2650   89.8639    6.0891 C.ar    1  UNL1        0.0504
      9 C          58.0562   90.6465    5.6692 C.ar    1  UNL1        0.0143
     10 C          58.2011   91.7984    4.7194 C.ar    1  UNL1       -0.0030
     11 C          59.6998   93.3196    3.2396 C.3     1  UNL1        0.0264
     12 C          59.6978   93.0760    1.7595 C.3     1  UNL1        0.0047
     13 C          60.9117   92.5003    1.0925 C.3     1  UNL1        0.0003
     14 C          63.2535   92.5369    2.2171 C.3     1  UNL1        0.0000
     15 C          62.2509   93.1484    1.2838 C.3     1  UNL1        0.0000
     16 C          59.7473   87.5468    9.2747 C.3     1  UNL1        0.2897
     17 O          60.9364   86.6954    9.6082 O.3     1  UNL1       -0.4655
     18 C          61.8188   87.0597   10.7652 C.ar    1  UNL1        0.1419
     19 C          62.0982   88.5014   11.0706 C.ar    1  UNL1        0.0516
     20 C          62.9806   88.8656   12.2276 C.ar    1  UNL1        0.0624
     21 C          63.2600   90.3074   12.5330 C.3     1  UNL1        0.0522
     22 N          63.5836   87.7881   13.0793 N.ar    1  UNL1       -0.2495
     23 C          63.3042   86.3463   12.7739 C.ar    1  UNL1        0.0840
     24 C          63.9072   85.2688   13.6255 C.ar    1  UNL1        0.0223
     25 C          63.6278   83.8271   13.3201 C.ar    1  UNL1        0.0384
     26 C          62.7454   83.4628   12.1631 C.ar    1  UNL1        0.1389
     27 C          62.1424   84.5403   11.3115 C.ar    1  UNL1        0.0414
     28 C          62.4218   85.9821   11.6169 C.ar    1  UNL1        0.0547
     29 O          62.4660   82.0210   11.8577 O.3     1  UNL1       -0.4714
     30 C          62.9809   80.9477   12.7703 C.3     1  UNL1        0.2525
@<TRIPOS>BOND
     1    14    15    1
     2    15    13    1
     3    13    12    1
     4    12    11    1
     5    11     5    1
     6     5     6   ar
     7     6     7   ar
     8     7     8   ar
     9     8     1    1
    10     1     2   am
    11     2     3    2
    12     2    16    1
    13    16    17    1
    14    17    18    1
    15    18    19   ar
    16    19    20   ar
    17    20    21    1
    18    20    22   ar
    19    22    23   ar
    20    23    24   ar
    21    24    25   ar
    22    25    26   ar
    23    26    29    1
    24    29    30    1
    25    26    27   ar
    26    27    28   ar
    27     8     9   ar
    28     9    10   ar
    29    10     5   ar
    30    28    18   ar
    31    28    23   ar
    32     1     4    1
