@<TRIPOS>MOLECULE
*****
 31 34 0 0 0
SMALL
GASTEIGER

@<TRIPOS>ATOM
      1 C          63.5200   87.4968   12.7290 C.3     1  UNL1        0.0323
      2 C          62.6016   87.1697   11.5890 C.ar    1  UNL1       -0.0065
      3 C          62.2378   85.7425   11.3047 C.ar    1  UNL1        0.0770
      4 N          61.3194   85.4153   10.1648 N.ar    1  UNL1       -0.2457
      5 C          60.7648   86.5154    9.3090 C.ar    1  UNL1        0.0810
      6 C          59.8464   86.1883    8.1691 C.ar    1  UNL1        0.0196
      7 C          59.2918   87.2883    7.3134 C.ar    1  UNL1        0.0082
      8 C          59.6556   88.7155    7.5976 C.ar    1  UNL1        0.0347
      9 BR         59.1009   89.8156    6.7418 Br      1  UNL1       -0.0490
     10 C          60.5739   89.0426    8.7376 C.ar    1  UNL1        0.0079
     11 C          61.1285   87.9426    9.5933 C.ar    1  UNL1        0.0155
     12 C          62.0470   88.2697   10.7333 C.ar    1  UNL1       -0.0037
     13 C          62.7924   84.6424   12.1605 C.ar    1  UNL1        0.0173
     14 C          62.3727   84.5246   13.5957 C.ar    1  UNL1        0.0015
     15 C          62.9274   83.4246   14.4514 C.ar    1  UNL1        0.0000
     16 C          63.9017   82.4423   13.8719 C.ar    1  UNL1        0.0000
     17 C          64.3215   82.5601   12.4367 C.ar    1  UNL1        0.0000
     18 C          63.7668   83.6602   11.5810 C.ar    1  UNL1        0.0015
     19 C          62.4107   89.6969   11.0175 C.3     1  UNL1        0.1141
     20 N          62.3113   90.2321   12.4152 N.pl3   1  UNL1       -0.3273
     21 H          61.4576   90.1797   12.9028 H       1  UNL1        0.1472
     22 C          63.5125   90.8473   13.0700 C.ar    1  UNL1        0.0727
     23 C          64.4741   91.6630   12.2578 C.ar    1  UNL1        0.0166
     24 C          65.6753   92.2782   12.9126 C.ar    1  UNL1        0.0025
     25 C          65.9148   92.0776   14.3796 C.ar    1  UNL1        0.0163
     26 C          64.9532   91.2618   15.1920 C.ar    1  UNL1        0.0320
     27 C          63.7520   90.6467   14.5372 C.ar    1  UNL1        0.1531
     28 F          62.7904   89.8309   15.3494 F       1  UNL1       -0.2029
     29 C          67.1160   92.6927   15.0344 C.2     1  UNL1        0.0729
     30 O          67.0303   93.1825   16.4497 O.co2   1  UNL1       -0.5446
     31 O          68.4029   92.8181   14.2741 O.co2   1  UNL1       -0.5446
@<TRIPOS>UNITY_ATOM_ATTR
30 1
charge -1
@<TRIPOS>BOND
     1     1     2    1
     2     2     3   ar
     3     3    13    1
     4    13    14   ar
     5    14    15   ar
     6    15    16   ar
     7    16    17   ar
     8    17    18   ar
     9     3     4   ar
    10     4     5   ar
    11     5     6   ar
    12     6     7   ar
    13     7     8   ar
    14     8     9    1
    15     8    10   ar
    16    10    11   ar
    17    11    12   ar
    18    12    19    1
    19    19    20    1
    20    20    22    1
    21    22    23   ar
    22    23    24   ar
    23    24    25   ar
    24    25    29    1
    25    29    30   ar
    26    29    31   ar
    27    25    26   ar
    28    26    27   ar
    29    27    28    1
    30    12     2   ar
    31    27    22   ar
    32    18    13   ar
    33    11     5   ar
    34    20    21    1
@<TRIPOS>MOLECULE
*****
 31 34 0 0 0
SMALL
GASTEIGER

@<TRIPOS>ATOM
      1 C          62.0404   86.7319   12.2378 C.3     1  UNL1        0.0323
      2 C          62.6564   88.0773   11.9912 C.ar    1  UNL1       -0.0065
      3 C          62.4124   88.7871   10.6925 C.ar    1  UNL1        0.0770
      4 N          63.0283   90.1324   10.4459 N.ar    1  UNL1       -0.2457
      5 C          63.8882   90.7679   11.4979 C.ar    1  UNL1        0.0810
      6 C          64.5041   92.1131   11.2513 C.ar    1  UNL1        0.0196
      7 C          65.3640   92.7485   12.3033 C.ar    1  UNL1        0.0082
      8 C          65.6080   92.0387   13.6020 C.ar    1  UNL1        0.0347
      9 BR         66.4679   92.6742   14.6541 Br      1  UNL1       -0.0490
     10 C          64.9921   90.6934   13.8486 C.ar    1  UNL1        0.0079
     11 C          64.1322   90.0580   12.7966 C.ar    1  UNL1        0.0155
     12 C          63.5162   88.7127   13.0432 C.ar    1  UNL1       -0.0037
     13 C          61.5525   88.1516    9.6405 C.ar    1  UNL1        0.0173
     14 C          61.8671   86.7700    9.1485 C.ar    1  UNL1        0.0015
     15 C          61.0072   86.1346    8.0965 C.ar    1  UNL1        0.0000
     16 C          59.8327   86.8808    7.5364 C.ar    1  UNL1        0.0000
     17 C          59.5181   88.2624    8.0284 C.ar    1  UNL1        0.0000
     18 C          60.3780   88.8978    9.0804 C.ar    1  UNL1        0.0015
     19 C          63.7602   88.0028   14.3419 C.3     1  UNL1        0.1141
     20 N          64.6707   86.8116   14.3860 N.pl3   1  UNL1       -0.3273
     21 H          65.6459   86.9388   14.4323 H       1  UNL1        0.1472
     22 C          64.0955   85.4265   14.3596 C.ar    1  UNL1        0.0727
     23 C          64.4434   84.4911   13.2399 C.ar    1  UNL1        0.0166
     24 C          63.8682   83.1060   13.2135 C.ar    1  UNL1        0.0025
     25 C          62.9450   82.6564   14.3069 C.ar    1  UNL1        0.0163
     26 C          62.5970   83.5919   15.4267 C.ar    1  UNL1        0.0320
     27 C          63.1722   84.9769   15.4531 C.ar    1  UNL1        0.1531
     28 F          62.8242   85.9123   16.5728 F       1  UNL1       -0.2029
     29 C          62.3697   81.2714   14.2805 C.2     1  UNL1        0.0729
     30 O          63.2805   80.0801   14.3194 O.co2   1  UNL1       -0.5446
     31 O          60.8838   81.0775   14.2152 O.co2   1  UNL1       -0.5446
@<TRIPOS>UNITY_ATOM_ATTR
30 1
charge -1
@<TRIPOS>BOND
     1     1     2    1
     2     2     3   ar
     3     3    13    1
     4    13    14   ar
     5    14    15   ar
     6    15    16   ar
     7    16    17   ar
     8    17    18   ar
     9     3     4   ar
    10     4     5   ar
    11     5     6   ar
    12     6     7   ar
    13     7     8   ar
    14     8     9    1
    15     8    10   ar
    16    10    11   ar
    17    11    12   ar
    18    12    19    1
    19    19    20    1
    20    20    22    1
    21    22    23   ar
    22    23    24   ar
    23    24    25   ar
    24    25    29    1
    25    29    30   ar
    26    29    31   ar
    27    25    26   ar
    28    26    27   ar
    29    27    28    1
    30    12     2   ar
    31    27    22   ar
    32    18    13   ar
    33    11     5   ar
    34    20    21    1
@<TRIPOS>MOLECULE
*****
 31 34 0 0 0
SMALL
GASTEIGER

@<TRIPOS>ATOM
      1 C          62.9319   89.1578   11.9696 C.3     1  UNL1        0.0323
      2 C          63.2277   87.8813   12.6998 C.ar    1  UNL1       -0.0065
      3 C          63.8375   87.9248   14.0696 C.ar    1  UNL1        0.0770
      4 N          64.1332   86.6484   14.7998 N.ar    1  UNL1       -0.2457
      5 C          63.8192   85.3284   14.1603 C.ar    1  UNL1        0.0810
      6 C          64.1150   84.0520   14.8905 C.ar    1  UNL1        0.0196
      7 C          63.8010   82.7320   14.2509 C.ar    1  UNL1        0.0082
      8 C          63.1912   82.6885   12.8812 C.ar    1  UNL1        0.0347
      9 BR         62.8772   81.3684   12.2416 Br      1  UNL1       -0.0490
     10 C          62.8954   83.9649   12.1510 C.ar    1  UNL1        0.0079
     11 C          63.2095   85.2848   12.7905 C.ar    1  UNL1        0.0155
     12 C          62.9137   86.5613   12.0603 C.ar    1  UNL1       -0.0037
     13 C          64.1515   89.2449   14.7091 C.ar    1  UNL1        0.0173
     14 C          65.2524   90.1020   14.1585 C.ar    1  UNL1        0.0015
     15 C          65.5663   91.4220   14.7980 C.ar    1  UNL1        0.0000
     16 C          64.7794   91.8848   15.9882 C.ar    1  UNL1        0.0000
     17 C          63.6786   91.0276   16.5389 C.ar    1  UNL1        0.0000
     18 C          63.3646   89.7077   15.8993 C.ar    1  UNL1        0.0015
     19 C          62.3039   86.5178   10.6905 C.3     1  UNL1        0.1141
     20 N          60.8452   86.8162   10.5091 N.pl3   1  UNL1       -0.3273
     21 H          60.1854   86.4494   11.1411 H       1  UNL1        0.1472
     22 C          60.3916   87.6733    9.3647 C.ar    1  UNL1        0.0727
     23 C          60.4085   89.1676    9.4942 C.ar    1  UNL1        0.0166
     24 C          59.9549   90.0247    8.3499 C.ar    1  UNL1        0.0025
     25 C          59.4845   89.3876    7.0760 C.ar    1  UNL1        0.0163
     26 C          59.4676   87.8933    6.9465 C.ar    1  UNL1        0.0320
     27 C          59.9211   87.0361    8.0908 C.ar    1  UNL1        0.1531
     28 F          59.9043   85.5419    7.9614 F       1  UNL1       -0.2029
     29 C          59.0309   90.2448    5.9317 C.2     1  UNL1        0.0729
     30 O          60.0424   90.9100    5.0459 O.co2   1  UNL1       -0.5446
     31 O          57.5659   90.4368    5.6730 O.co2   1  UNL1       -0.5446
@<TRIPOS>UNITY_ATOM_ATTR
30 1
charge -1
@<TRIPOS>BOND
     1     1     2    1
     2     2     3   ar
     3     3    13    1
     4    13    14   ar
     5    14    15   ar
     6    15    16   ar
     7    16    17   ar
     8    17    18   ar
     9     3     4   ar
    10     4     5   ar
    11     5     6   ar
    12     6     7   ar
    13     7     8   ar
    14     8     9    1
    15     8    10   ar
    16    10    11   ar
    17    11    12   ar
    18    12    19    1
    19    19    20    1
    20    20    22    1
    21    22    23   ar
    22    23    24   ar
    23    24    25   ar
    24    25    29    1
    25    29    30   ar
    26    29    31   ar
    27    25    26   ar
    28    26    27   ar
    29    27    28    1
    30    12     2   ar
    31    27    22   ar
    32    18    13   ar
    33    11     5   ar
    34    20    21    1
@<TRIPOS>MOLECULE
*****
 31 34 0 0 0
SMALL
GASTEIGER

@<TRIPOS>ATOM
      1 C          63.9816   84.5106   14.6943 C.3     1  UNL1        0.0323
      2 C          63.3764   85.1325   13.4707 C.ar    1  UNL1       -0.0065
      3 C          62.6639   84.2745   12.4676 C.ar    1  UNL1        0.0770
      4 N          62.0587   84.8964   11.2441 N.ar    1  UNL1       -0.2457
      5 C          62.1660   86.3762   11.0236 C.ar    1  UNL1        0.0810
      6 C          61.5609   86.9980    9.8001 C.ar    1  UNL1        0.0196
      7 C          61.6682   88.4778    9.5797 C.ar    1  UNL1        0.0082
      8 C          62.3807   89.3358   10.5827 C.ar    1  UNL1        0.0347
      9 BR         62.4881   90.8157   10.3622 Br      1  UNL1       -0.0490
     10 C          62.9859   88.7140   11.8063 C.ar    1  UNL1        0.0079
     11 C          62.8786   87.2342   12.0267 C.ar    1  UNL1        0.0155
     12 C          63.4838   86.6123   13.2503 C.ar    1  UNL1       -0.0037
     13 C          62.5566   82.7947   12.6881 C.ar    1  UNL1        0.0173
     14 C          63.0589   81.8424   11.6437 C.ar    1  UNL1        0.0015
     15 C          62.9515   80.3626   11.8643 C.ar    1  UNL1        0.0000
     16 C          62.3419   79.8351   13.1292 C.ar    1  UNL1        0.0000
     17 C          61.8396   80.7874   14.1736 C.ar    1  UNL1        0.0000
     18 C          61.9469   82.2672   13.9531 C.ar    1  UNL1        0.0015
     19 C          64.1963   87.4703   14.2534 C.3     1  UNL1        0.1141
     20 N          63.5709   88.7495   14.7250 N.pl3   1  UNL1       -0.3273
     21 H          62.6332   88.7576   15.0248 H       1  UNL1        0.1472
     22 C          64.3741   90.0162   14.7400 C.ar    1  UNL1        0.0727
     23 C          65.2434   90.3669   13.5690 C.ar    1  UNL1        0.0166
     24 C          66.0467   91.6336   13.5839 C.ar    1  UNL1        0.0025
     25 C          65.9806   92.5496   14.7698 C.ar    1  UNL1        0.0163
     26 C          65.1113   92.1990   15.9409 C.ar    1  UNL1        0.0320
     27 C          64.3080   90.9322   15.9260 C.ar    1  UNL1        0.1531
     28 F          63.4387   90.5816   17.0970 F       1  UNL1       -0.2029
     29 C          66.7839   93.8163   14.7848 C.2     1  UNL1        0.0729
     30 O          66.5530   94.8632   13.7355 O.co2   1  UNL1       -0.5446
     31 O          67.8179   94.0362   15.8488 O.co2   1  UNL1       -0.5446
@<TRIPOS>UNITY_ATOM_ATTR
30 1
charge -1
@<TRIPOS>BOND
     1     1     2    1
     2     2     3   ar
     3     3    13    1
     4    13    14   ar
     5    14    15   ar
     6    15    16   ar
     7    16    17   ar
     8    17    18   ar
     9     3     4   ar
    10     4     5   ar
    11     5     6   ar
    12     6     7   ar
    13     7     8   ar
    14     8     9    1
    15     8    10   ar
    16    10    11   ar
    17    11    12   ar
    18    12    19    1
    19    19    20    1
    20    20    22    1
    21    22    23   ar
    22    23    24   ar
    23    24    25   ar
    24    25    29    1
    25    29    30   ar
    26    29    31   ar
    27    25    26   ar
    28    26    27   ar
    29    27    28    1
    30    12     2   ar
    31    27    22   ar
    32    18    13   ar
    33    11     5   ar
    34    20    21    1
@<TRIPOS>MOLECULE
*****
 31 34 0 0 0
SMALL
GASTEIGER

@<TRIPOS>ATOM
      1 C          63.3395   87.2639   12.9225 C.3     1  UNL1        0.0323
      2 C          62.5224   86.9718   11.6988 C.ar    1  UNL1       -0.0065
      3 C          62.2963   85.5526   11.2692 C.ar    1  UNL1        0.0770
      4 N          61.4794   85.2605   10.0456 N.ar    1  UNL1       -0.2457
      5 C          60.8884   86.3877    9.2516 C.ar    1  UNL1        0.0810
      6 C          60.0715   86.0956    8.0280 C.ar    1  UNL1        0.0196
      7 C          59.4806   87.2227    7.2341 C.ar    1  UNL1        0.0082
      8 C          59.7067   88.6420    7.6638 C.ar    1  UNL1        0.0347
      9 BR         59.1157   89.7692    6.8698 Br      1  UNL1       -0.0490
     10 C          60.5236   88.9341    8.8874 C.ar    1  UNL1        0.0079
     11 C          61.1145   87.8069    9.6813 C.ar    1  UNL1        0.0155
     12 C          61.9315   88.0990   10.9049 C.ar    1  UNL1       -0.0037
     13 C          62.8873   84.4254   12.0631 C.ar    1  UNL1        0.0173
     14 C          62.4495   84.1953   13.4792 C.ar    1  UNL1        0.0015
     15 C          63.0405   83.0682   14.2731 C.ar    1  UNL1        0.0000
     16 C          64.0692   82.1711   13.6509 C.ar    1  UNL1        0.0000
     17 C          64.5069   82.4012   12.2348 C.ar    1  UNL1        0.0000
     18 C          63.9160   83.5284   11.4409 C.ar    1  UNL1        0.0015
     19 C          62.1576   89.5182   11.3346 C.3     1  UNL1        0.1141
     20 N          63.3215   89.8582   12.2176 N.pl3   1  UNL1       -0.3273
     21 H          63.5660   89.2613   12.9614 H       1  UNL1        0.1472
     22 C          64.1130   91.1075   11.9674 C.ar    1  UNL1        0.0727
     23 C          64.0672   91.7674   10.6211 C.ar    1  UNL1        0.0166
     24 C          64.8587   93.0168   10.3709 C.ar    1  UNL1        0.0025
     25 C          65.6961   93.6063   11.4669 C.ar    1  UNL1        0.0163
     26 C          65.7420   92.9464   12.8132 C.ar    1  UNL1        0.0320
     27 C          64.9505   91.6970   13.0634 C.ar    1  UNL1        0.1531
     28 F          64.9964   91.0371   14.4097 F       1  UNL1       -0.2029
     29 C          66.4876   94.8556   11.2167 C.2     1  UNL1        0.0729
     30 O          67.6116   94.8450   10.2234 O.co2   1  UNL1       -0.5446
     31 O          66.1551   96.1155   11.9596 O.co2   1  UNL1       -0.5446
@<TRIPOS>UNITY_ATOM_ATTR
30 1
charge -1
@<TRIPOS>BOND
     1     1     2    1
     2     2     3   ar
     3     3    13    1
     4    13    14   ar
     5    14    15   ar
     6    15    16   ar
     7    16    17   ar
     8    17    18   ar
     9     3     4   ar
    10     4     5   ar
    11     5     6   ar
    12     6     7   ar
    13     7     8   ar
    14     8     9    1
    15     8    10   ar
    16    10    11   ar
    17    11    12   ar
    18    12    19    1
    19    19    20    1
    20    20    22    1
    21    22    23   ar
    22    23    24   ar
    23    24    25   ar
    24    25    29    1
    25    29    30   ar
    26    29    31   ar
    27    25    26   ar
    28    26    27   ar
    29    27    28    1
    30    12     2   ar
    31    27    22   ar
    32    18    13   ar
    33    11     5   ar
    34    20    21    1
@<TRIPOS>MOLECULE
*****
 31 34 0 0 0
SMALL
GASTEIGER

@<TRIPOS>ATOM
      1 C          65.8279   92.0798   13.3902 C.3     1  UNL1        0.0323
      2 C          64.7173   91.6709   12.4685 C.ar    1  UNL1       -0.0065
      3 C          64.8049   91.9829   11.0039 C.ar    1  UNL1        0.0770
      4 N          63.6944   91.5741   10.0823 N.ar    1  UNL1       -0.2457
      5 C          62.4961   90.8532   10.6251 C.ar    1  UNL1        0.0810
      6 C          61.3856   90.4444    9.7035 C.ar    1  UNL1        0.0196
      7 C          60.1874   89.7236   10.2464 C.ar    1  UNL1        0.0082
      8 C          60.0998   89.4116   11.7109 C.ar    1  UNL1        0.0347
      9 BR         58.9016   88.6907   12.2538 Br      1  UNL1       -0.0490
     10 C          61.2103   89.8204   12.6326 C.ar    1  UNL1        0.0079
     11 C          62.4085   90.5412   12.0897 C.ar    1  UNL1        0.0155
     12 C          63.5191   90.9501   13.0114 C.ar    1  UNL1       -0.0037
     13 C          66.0032   92.7038   10.4611 C.ar    1  UNL1        0.0173
     14 C          67.2269   91.9321   10.0650 C.ar    1  UNL1        0.0015
     15 C          68.4250   92.6529    9.5221 C.ar    1  UNL1        0.0000
     16 C          68.3995   94.1455    9.3754 C.ar    1  UNL1        0.0000
     17 C          67.1758   94.9172    9.7715 C.ar    1  UNL1        0.0000
     18 C          65.9776   94.1964   10.3143 C.ar    1  UNL1        0.0015
     19 C          63.4315   90.6381   14.4760 C.3     1  UNL1        0.1141
     20 N          64.4082   89.6857   15.0997 N.pl3   1  UNL1       -0.3273
     21 H          65.2497   90.0242   15.4826 H       1  UNL1        0.1472
     22 C          64.1028   88.2177   15.1400 C.ar    1  UNL1        0.0727
     23 C          64.3449   87.3677   13.9280 C.ar    1  UNL1        0.0166
     24 C          64.0395   85.8997   13.9683 C.ar    1  UNL1        0.0025
     25 C          63.4921   85.2816   15.2206 C.ar    1  UNL1        0.0163
     26 C          63.2500   86.1316   16.4326 C.ar    1  UNL1        0.0320
     27 C          63.5553   87.5996   16.3923 C.ar    1  UNL1        0.1531
     28 F          63.3132   88.4496   17.6043 F       1  UNL1       -0.2029
     29 C          63.1867   83.8136   15.2609 C.2     1  UNL1        0.0729
     30 O          61.7826   83.3333   15.0417 O.co2   1  UNL1       -0.5446
     31 O          64.2853   82.8258   15.5203 O.co2   1  UNL1       -0.5446
@<TRIPOS>UNITY_ATOM_ATTR
30 1
charge -1
@<TRIPOS>BOND
     1     1     2    1
     2     2     3   ar
     3     3    13    1
     4    13    14   ar
     5    14    15   ar
     6    15    16   ar
     7    16    17   ar
     8    17    18   ar
     9     3     4   ar
    10     4     5   ar
    11     5     6   ar
    12     6     7   ar
    13     7     8   ar
    14     8     9    1
    15     8    10   ar
    16    10    11   ar
    17    11    12   ar
    18    12    19    1
    19    19    20    1
    20    20    22    1
    21    22    23   ar
    22    23    24   ar
    23    24    25   ar
    24    25    29    1
    25    29    30   ar
    26    29    31   ar
    27    25    26   ar
    28    26    27   ar
    29    27    28    1
    30    12     2   ar
    31    27    22   ar
    32    18    13   ar
    33    11     5   ar
    34    20    21    1
@<TRIPOS>MOLECULE
*****
 31 34 0 0 0
SMALL
GASTEIGER

@<TRIPOS>ATOM
      1 C          64.5776   87.8454   14.9225 C.3     1  UNL1        0.0323
      2 C          63.8962   88.3890   13.7017 C.ar    1  UNL1       -0.0065
      3 C          63.9980   89.8491   13.3735 C.ar    1  UNL1        0.0770
      4 N          63.3167   90.3927   12.1528 N.ar    1  UNL1       -0.2457
      5 C          62.5335   89.4762   11.2602 C.ar    1  UNL1        0.0810
      6 C          61.8522   90.0198   10.0395 C.ar    1  UNL1        0.0196
      7 C          61.0690   89.1033    9.1469 C.ar    1  UNL1        0.0082
      8 C          60.9672   87.6432    9.4751 C.ar    1  UNL1        0.0347
      9 BR         60.1840   86.7267    8.5825 Br      1  UNL1       -0.0490
     10 C          61.6486   87.0996   10.6959 C.ar    1  UNL1        0.0079
     11 C          62.4317   88.0161   11.5884 C.ar    1  UNL1        0.0155
     12 C          63.1131   87.4725   12.8092 C.ar    1  UNL1       -0.0037
     13 C          64.7812   90.7657   14.2662 C.ar    1  UNL1        0.0173
     14 C          64.1964   91.2238   15.5692 C.ar    1  UNL1        0.0015
     15 C          64.9796   92.1403   16.4618 C.ar    1  UNL1        0.0000
     16 C          66.3476   92.5986   16.0512 C.ar    1  UNL1        0.0000
     17 C          66.9324   92.1405   14.7481 C.ar    1  UNL1        0.0000
     18 C          66.1492   91.2240   13.8556 C.ar    1  UNL1        0.0015
     19 C          63.0113   86.0124   13.1374 C.3     1  UNL1        0.1141
     20 N          64.1116   85.0751   12.7365 N.pl3   1  UNL1       -0.3273
     21 H          65.0517   85.3545   12.8217 H       1  UNL1        0.1472
     22 C          63.7794   83.7120   12.2057 C.ar    1  UNL1        0.0727
     23 C          64.2876   83.2869   10.8600 C.ar    1  UNL1        0.0166
     24 C          63.9555   81.9238   10.3292 C.ar    1  UNL1        0.0025
     25 C          63.1151   80.9859   11.1441 C.ar    1  UNL1        0.0163
     26 C          62.6069   81.4110   12.4899 C.ar    1  UNL1        0.0320
     27 C          62.9390   82.7741   13.0206 C.ar    1  UNL1        0.1531
     28 F          62.4308   83.1993   14.3663 F       1  UNL1       -0.2029
     29 C          62.7830   79.6228   10.6133 C.2     1  UNL1        0.0729
     30 O          62.6147   79.4132    9.1375 O.co2   1  UNL1       -0.5446
     31 O          62.6191   78.4695   11.5582 O.co2   1  UNL1       -0.5446
@<TRIPOS>UNITY_ATOM_ATTR
30 1
charge -1
@<TRIPOS>BOND
     1     1     2    1
     2     2     3   ar
     3     3    13    1
     4    13    14   ar
     5    14    15   ar
     6    15    16   ar
     7    16    17   ar
     8    17    18   ar
     9     3     4   ar
    10     4     5   ar
    11     5     6   ar
    12     6     7   ar
    13     7     8   ar
    14     8     9    1
    15     8    10   ar
    16    10    11   ar
    17    11    12   ar
    18    12    19    1
    19    19    20    1
    20    20    22    1
    21    22    23   ar
    22    23    24   ar
    23    24    25   ar
    24    25    29    1
    25    29    30   ar
    26    29    31   ar
    27    25    26   ar
    28    26    27   ar
    29    27    28    1
    30    12     2   ar
    31    27    22   ar
    32    18    13   ar
    33    11     5   ar
    34    20    21    1
@<TRIPOS>MOLECULE
*****
 31 34 0 0 0
SMALL
GASTEIGER

@<TRIPOS>ATOM
      1 C          64.9924   88.6920   15.0834 C.3     1  UNL1        0.0323
      2 C          64.4001   89.3107   13.8519 C.ar    1  UNL1       -0.0065
      3 C          64.7810   90.7065   13.4563 C.ar    1  UNL1        0.0770
      4 N          64.1887   91.3252   12.2249 N.ar    1  UNL1       -0.2457
      5 C          63.2155   90.5479   11.3889 C.ar    1  UNL1        0.0810
      6 C          62.6232   91.1665   10.1575 C.ar    1  UNL1        0.0196
      7 C          61.6500   90.3893    9.3216 C.ar    1  UNL1        0.0082
      8 C          61.2691   88.9934    9.7172 C.ar    1  UNL1        0.0347
      9 BR         60.2958   88.2162    8.8812 Br      1  UNL1       -0.0490
     10 C          61.8614   88.3748   10.9486 C.ar    1  UNL1        0.0079
     11 C          62.8346   89.1520   11.7845 C.ar    1  UNL1        0.0155
     12 C          63.4269   88.5334   13.0160 C.ar    1  UNL1       -0.0037
     13 C          65.7543   91.4838   14.2923 C.ar    1  UNL1        0.0173
     14 C          65.3240   92.0491   15.6133 C.ar    1  UNL1        0.0015
     15 C          66.2973   92.8263   16.4492 C.ar    1  UNL1        0.0000
     16 C          67.7007   93.0381   15.9640 C.ar    1  UNL1        0.0000
     17 C          68.1310   92.4728   14.6430 C.ar    1  UNL1        0.0000
     18 C          67.1577   91.6956   13.8071 C.ar    1  UNL1        0.0015
     19 C          63.0460   87.1375   13.4115 C.3     1  UNL1        0.1141
     20 N          63.4682   85.9757   12.5620 N.pl3   1  UNL1       -0.3273
     21 H          64.0702   86.1188   11.7963 H       1  UNL1        0.1472
     22 C          62.9733   84.5957   12.8792 C.ar    1  UNL1        0.0727
     23 C          62.5577   84.2511   14.2787 C.ar    1  UNL1        0.0166
     24 C          62.0627   82.8711   14.5958 C.ar    1  UNL1        0.0025
     25 C          61.9833   81.8356   13.5135 C.ar    1  UNL1        0.0163
     26 C          62.3989   82.1801   12.1139 C.ar    1  UNL1        0.0320
     27 C          62.8939   83.5602   11.7968 C.ar    1  UNL1        0.1531
     28 F          63.3094   83.9047   10.3973 F       1  UNL1       -0.2029
     29 C          61.4883   80.4556   13.8307 C.2     1  UNL1        0.0729
     30 O          60.1254   80.2666   14.4280 O.co2   1  UNL1       -0.5446
     31 O          62.3562   79.2648   13.5505 O.co2   1  UNL1       -0.5446
@<TRIPOS>UNITY_ATOM_ATTR
30 1
charge -1
@<TRIPOS>BOND
     1     1     2    1
     2     2     3   ar
     3     3    13    1
     4    13    14   ar
     5    14    15   ar
     6    15    16   ar
     7    16    17   ar
     8    17    18   ar
     9     3     4   ar
    10     4     5   ar
    11     5     6   ar
    12     6     7   ar
    13     7     8   ar
    14     8     9    1
    15     8    10   ar
    16    10    11   ar
    17    11    12   ar
    18    12    19    1
    19    19    20    1
    20    20    22    1
    21    22    23   ar
    22    23    24   ar
    23    24    25   ar
    24    25    29    1
    25    29    30   ar
    26    29    31   ar
    27    25    26   ar
    28    26    27   ar
    29    27    28    1
    30    12     2   ar
    31    27    22   ar
    32    18    13   ar
    33    11     5   ar
    34    20    21    1
@<TRIPOS>MOLECULE
*****
 31 34 0 0 0
SMALL
GASTEIGER

@<TRIPOS>ATOM
      1 C          63.7287   91.9290    9.6558 C.3     1  UNL1        0.0323
      2 C          64.1418   91.8794   11.0970 C.ar    1  UNL1       -0.0065
      3 C          65.2755   92.7335   11.5820 C.ar    1  UNL1        0.0770
      4 N          65.6886   92.6839   13.0232 N.ar    1  UNL1       -0.2457
      5 C          64.9679   91.7803   13.9793 C.ar    1  UNL1        0.0810
      6 C          65.3810   91.7307   15.4204 C.ar    1  UNL1        0.0196
      7 C          64.6604   90.8271   16.3765 C.ar    1  UNL1        0.0082
      8 C          63.5267   89.9730   15.8914 C.ar    1  UNL1        0.0347
      9 BR         62.8060   89.0694   16.8476 Br      1  UNL1       -0.0490
     10 C          63.1136   90.0226   14.4503 C.ar    1  UNL1        0.0079
     11 C          63.8342   90.9262   13.4943 C.ar    1  UNL1        0.0155
     12 C          63.4212   90.9758   12.0531 C.ar    1  UNL1       -0.0037
     13 C          65.9962   93.6371   10.6259 C.ar    1  UNL1        0.0173
     14 C          67.1742   93.1239    9.8521 C.ar    1  UNL1        0.0015
     15 C          67.8948   94.0276    8.8960 C.ar    1  UNL1        0.0000
     16 C          67.4373   95.4444    8.7137 C.ar    1  UNL1        0.0000
     17 C          66.2592   95.9576    9.4875 C.ar    1  UNL1        0.0000
     18 C          65.5387   95.0540   10.4435 C.ar    1  UNL1        0.0015
     19 C          62.2874   90.1217   11.5680 C.3     1  UNL1        0.1141
     20 N          62.5446   89.0265   10.5759 N.pl3   1  UNL1       -0.3273
     21 H          62.6825   89.2453    9.6260 H       1  UNL1        0.1472
     22 C          62.5919   87.5981   11.0311 C.ar    1  UNL1        0.0727
     23 C          63.1290   87.2615   12.3906 C.ar    1  UNL1        0.0166
     24 C          63.1762   85.8330   12.8458 C.ar    1  UNL1        0.0025
     25 C          62.6863   84.7411   11.9415 C.ar    1  UNL1        0.0163
     26 C          62.1491   85.0777   10.5820 C.ar    1  UNL1        0.0320
     27 C          62.1019   86.5061   10.1268 C.ar    1  UNL1        0.1531
     28 F          61.5647   86.8427    8.7674 F       1  UNL1       -0.2029
     29 C          62.7335   83.3126   12.3967 C.2     1  UNL1        0.0729
     30 O          62.3786   82.9643   13.8120 O.co2   1  UNL1       -0.5446
     31 O          63.1355   82.2324   11.4368 O.co2   1  UNL1       -0.5446
@<TRIPOS>UNITY_ATOM_ATTR
30 1
charge -1
@<TRIPOS>BOND
     1     1     2    1
     2     2     3   ar
     3     3    13    1
     4    13    14   ar
     5    14    15   ar
     6    15    16   ar
     7    16    17   ar
     8    17    18   ar
     9     3     4   ar
    10     4     5   ar
    11     5     6   ar
    12     6     7   ar
    13     7     8   ar
    14     8     9    1
    15     8    10   ar
    16    10    11   ar
    17    11    12   ar
    18    12    19    1
    19    19    20    1
    20    20    22    1
    21    22    23   ar
    22    23    24   ar
    23    24    25   ar
    24    25    29    1
    25    29    30   ar
    26    29    31   ar
    27    25    26   ar
    28    26    27   ar
    29    27    28    1
    30    12     2   ar
    31    27    22   ar
    32    18    13   ar
    33    11     5   ar
    34    20    21    1
