@<TRIPOS>MOLECULE
*****
 32 35 0 0 0
SMALL
GASTEIGER

@<TRIPOS>ATOM
      1 N          62.5826   87.7402    9.7544 N.am    1  UNL1       -0.2684
      2 C          62.8767   87.3256   11.1657 C.2     1  UNL1        0.3078
      3 O          62.6525   85.9051   11.5922 O.2     1  UNL1       -0.2522
      4 N          63.3947   88.3314   12.1505 N.am    1  UNL1       -0.2605
      5 C          63.6888   87.9168   13.5618 C.3     1  UNL1        0.1164
      6 C          64.2068   88.9226   14.5465 C.3     1  UNL1        0.1137
      7 N          64.4309   90.3432   14.1200 N.pl3   1  UNL1       -0.2913
      8 C          64.1370   90.7579   12.7088 C.3     1  UNL1        0.0941
      9 C          64.3611   92.1784   12.2824 C.3     1  UNL1        0.0233
     10 C          63.6188   89.7519   11.7240 C.3     1  UNL1        0.1147
     11 H          62.7297   88.6726    9.4745 H       1  UNL1        0.1564
     12 C          64.9491   91.3491   15.1048 C.ar    1  UNL1        0.1365
     13 N          64.0190   91.9646   16.1079 N.ar    1  UNL1       -0.1990
     14 C          64.5370   92.9704   17.0926 C.ar    1  UNL1        0.2153
     15 N          63.6069   93.5859   18.0957 N.pl3   1  UNL1       -0.3274
     16 N          65.9853   93.3608   17.0744 N.ar    1  UNL1       -0.2073
     17 C          66.9153   92.7453   16.0714 C.ar    1  UNL1        0.1163
     18 S          68.3813   92.9326   15.8150 S.2     1  UNL1       -0.0673
     19 C          68.7693   92.0424   14.6717 C.ar    1  UNL1        0.0370
     20 C          67.5431   91.3050   14.2215 C.ar    1  UNL1        0.0118
     21 C          66.3972   91.7395   15.0866 C.ar    1  UNL1        0.0561
     22 H          62.6564   93.3297   18.1077 H       1  UNL1        0.1452
     23 H          63.9469   94.2461   18.7421 H       1  UNL1        0.1452
     24 C          61.0283   84.7226    6.8001 C.ar    1  UNL1        0.1385
     25 C          62.4729   84.7020    7.2036 C.ar    1  UNL1        0.0382
     26 C          62.9910   85.7078    8.1883 C.ar    1  UNL1        0.0175
     27 C          62.0646   86.7344    8.7697 C.ar    1  UNL1        0.0478
     28 C          60.6199   86.7550    8.3662 C.ar    1  UNL1       -0.0053
     29 C          59.6934   87.7815    8.9475 C.3     1  UNL1        0.0324
     30 C          60.1018   85.7491    7.3814 C.ar    1  UNL1        0.0339
     31 C          61.2144   83.5176    4.5060 C.3     1  UNL1        0.2525
     32 O          60.5102   83.7167    5.8153 O.3     1  UNL1       -0.4714
@<TRIPOS>BOND
     1    31    32    1
     2    32    24    1
     3    24    25   ar
     4    25    26   ar
     5    26    27   ar
     6    27     1    1
     7     1     2   am
     8     2     3    2
     9     2     4   am
    10     4     5    1
    11     5     6    1
    12     6     7    1
    13     7    12    1
    14    12    13   ar
    15    13    14   ar
    16    14    15    1
    17    14    16   ar
    18    16    17   ar
    19    17    18   ar
    20    18    19   ar
    21    19    20   ar
    22    20    21   ar
    23     7     8    1
    24     8     9    1
    25     8    10    1
    26    27    28   ar
    27    28    29    1
    28    28    30   ar
    29    30    24   ar
    30    10     4    1
    31    21    12   ar
    32    21    17   ar
    33     1    11    1
    34    15    22    1
    35    15    23    1
@<TRIPOS>MOLECULE
*****
 32 35 0 0 0
SMALL
GASTEIGER

@<TRIPOS>ATOM
      1 N          62.5535   87.0684   10.2110 N.am    1  UNL1       -0.2684
      2 C          62.6562   88.5634   10.1435 C.2     1  UNL1        0.3078
      3 O          62.2444   89.2878    8.8962 O.2     1  UNL1       -0.2522
      4 N          63.1707   89.3338   11.3231 N.am    1  UNL1       -0.2605
      5 C          63.2735   90.8289   11.2555 C.3     1  UNL1        0.1164
      6 C          63.7879   91.5993   12.4351 C.3     1  UNL1        0.1137
      7 N          64.1998   90.8748   13.6825 N.pl3   1  UNL1       -0.2913
      8 C          64.0970   89.3799   13.7501 C.3     1  UNL1        0.0941
      9 C          64.5088   88.6555   14.9973 C.3     1  UNL1        0.0233
     10 C          63.5825   88.6094   12.5703 C.3     1  UNL1        0.1147
     11 H          62.8237   86.5929   11.0296 H       1  UNL1        0.1564
     12 C          64.7143   91.6454   14.8621 C.ar    1  UNL1        0.1365
     13 N          63.7547   92.1928   15.8767 N.ar    1  UNL1       -0.1990
     14 C          64.2691   92.9633   17.0563 C.ar    1  UNL1        0.2153
     15 N          63.3095   93.5108   18.0710 N.pl3   1  UNL1       -0.3274
     16 N          65.7433   93.1864   17.2214 N.ar    1  UNL1       -0.2073
     17 C          66.7029   92.6390   16.2068 C.ar    1  UNL1        0.1163
     18 S          68.1982   92.6990   16.1049 S.2     1  UNL1       -0.0673
     19 C          68.6078   91.9655   14.8622 C.ar    1  UNL1        0.0370
     20 C          67.3657   91.4522   14.1961 C.ar    1  UNL1        0.0118
     21 C          66.1884   91.8684   15.0272 C.ar    1  UNL1        0.0561
     22 H          62.3419   93.3644   17.9626 H       1  UNL1        0.1452
     23 H          63.6471   94.0166   18.8452 H       1  UNL1        0.1452
     24 C          61.0099   84.7569    6.6721 C.ar    1  UNL1        0.1385
     25 C          62.4588   84.6702    7.0505 C.ar    1  UNL1        0.0382
     26 C          62.9734   85.4406    8.2301 C.ar    1  UNL1        0.0175
     27 C          62.0390   86.2979    9.0314 C.ar    1  UNL1        0.0478
     28 C          60.5900   86.3846    8.6530 C.ar    1  UNL1       -0.0053
     29 C          59.6556   87.2419    9.4543 C.3     1  UNL1        0.0324
     30 C          60.0755   85.6141    7.4734 C.ar    1  UNL1        0.0339
     31 C          61.3698   83.7820    4.2909 C.3     1  UNL1        0.2525
     32 O          60.4954   83.9864    5.4924 O.3     1  UNL1       -0.4714
@<TRIPOS>BOND
     1    31    32    1
     2    32    24    1
     3    24    25   ar
     4    25    26   ar
     5    26    27   ar
     6    27     1    1
     7     1     2   am
     8     2     3    2
     9     2     4   am
    10     4     5    1
    11     5     6    1
    12     6     7    1
    13     7    12    1
    14    12    13   ar
    15    13    14   ar
    16    14    15    1
    17    14    16   ar
    18    16    17   ar
    19    17    18   ar
    20    18    19   ar
    21    19    20   ar
    22    20    21   ar
    23     7     8    1
    24     8     9    1
    25     8    10    1
    26    27    28   ar
    27    28    29    1
    28    28    30   ar
    29    30    24   ar
    30    10     4    1
    31    21    12   ar
    32    21    17   ar
    33     1    11    1
    34    15    22    1
    35    15    23    1
@<TRIPOS>MOLECULE
*****
 32 35 0 0 0
SMALL
GASTEIGER

@<TRIPOS>ATOM
      1 N          63.3361   84.5181   12.6106 N.am    1  UNL1       -0.2684
      2 C          63.5850   84.8918   14.0419 C.2     1  UNL1        0.3078
      3 O          63.6224   83.8282   15.0989 O.2     1  UNL1       -0.2522
      4 N          63.7966   86.3288   14.4160 N.am    1  UNL1       -0.2605
      5 C          64.0455   86.7024   15.8473 C.3     1  UNL1        0.1164
      6 C          64.2571   88.1394   16.2214 C.3     1  UNL1        0.1137
      7 N          64.2198   89.2030   15.1643 N.pl3   1  UNL1       -0.2913
      8 C          63.9709   88.8295   13.7330 C.3     1  UNL1        0.0941
      9 C          63.9336   89.8930   12.6759 C.3     1  UNL1        0.0233
     10 C          63.7593   87.3923   13.3589 C.3     1  UNL1        0.1147
     11 H          63.3116   85.2162   11.9167 H       1  UNL1        0.1564
     12 C          64.4314   90.6401   15.5384 C.ar    1  UNL1        0.1365
     13 N          63.3658   91.3851   16.2865 N.ar    1  UNL1       -0.1990
     14 C          63.5773   92.8221   16.6607 C.ar    1  UNL1        0.2153
     15 N          62.5117   93.5670   17.4088 N.pl3   1  UNL1       -0.3274
     16 N          64.8545   93.5143   16.2868 N.ar    1  UNL1       -0.2073
     17 C          65.9201   92.7694   15.5387 C.ar    1  UNL1        0.1163
     18 S          67.2718   93.1845   15.0383 S.2     1  UNL1       -0.0673
     19 C          67.8957   92.0040   14.3548 C.ar    1  UNL1        0.0370
     20 C          66.9295   90.8592   14.4328 C.ar    1  UNL1        0.0118
     21 C          65.7085   91.3323   15.1645 C.ar    1  UNL1        0.0561
     22 H          61.6735   93.1128   17.6542 H       1  UNL1        0.1452
     23 H          62.6506   94.5103   17.6544 H       1  UNL1        0.1452
     24 C          62.7014   80.2069   11.4881 C.ar    1  UNL1        0.1385
     25 C          62.3294   80.6875   12.8595 C.ar    1  UNL1        0.0382
     26 C          62.5410   82.1245   13.2337 C.ar    1  UNL1        0.0175
     27 C          63.1246   83.0811   12.2364 C.ar    1  UNL1        0.0478
     28 C          63.4966   82.6005   10.8650 C.ar    1  UNL1       -0.0053
     29 C          64.0801   83.5570    9.8677 C.3     1  UNL1        0.0324
     30 C          63.2850   81.1634   10.4909 C.ar    1  UNL1        0.0339
     31 C          62.9727   78.2610    9.7881 C.3     1  UNL1        0.2525
     32 O          62.4898   78.7698   11.1140 O.3     1  UNL1       -0.4714
@<TRIPOS>BOND
     1    31    32    1
     2    32    24    1
     3    24    25   ar
     4    25    26   ar
     5    26    27   ar
     6    27     1    1
     7     1     2   am
     8     2     3    2
     9     2     4   am
    10     4     5    1
    11     5     6    1
    12     6     7    1
    13     7    12    1
    14    12    13   ar
    15    13    14   ar
    16    14    15    1
    17    14    16   ar
    18    16    17   ar
    19    17    18   ar
    20    18    19   ar
    21    19    20   ar
    22    20    21   ar
    23     7     8    1
    24     8     9    1
    25     8    10    1
    26    27    28   ar
    27    28    29    1
    28    28    30   ar
    29    30    24   ar
    30    10     4    1
    31    21    12   ar
    32    21    17   ar
    33     1    11    1
    34    15    22    1
    35    15    23    1
@<TRIPOS>MOLECULE
*****
 32 35 0 0 0
SMALL
GASTEIGER

@<TRIPOS>ATOM
      1 N          59.4015   92.2410    2.1065 N.am    1  UNL1       -0.2684
      2 C          59.7405   93.6758    1.8301 C.2     1  UNL1        0.3078
      3 O          60.1466   94.5806    2.9555 O.2     1  UNL1       -0.2522
      4 N          59.6735   94.2058    0.4286 N.am    1  UNL1       -0.2605
      5 C          60.0126   95.6406    0.1522 C.3     1  UNL1        0.1164
      6 C          59.9456   96.1706   -1.2494 C.3     1  UNL1        0.1137
      7 N          59.5396   95.2657   -2.3748 N.pl3   1  UNL1       -0.2913
      8 C          59.2005   93.8309   -2.0985 C.3     1  UNL1        0.0941
      9 C          58.7945   92.9261   -3.2239 C.3     1  UNL1        0.0233
     10 C          59.2675   93.3010   -0.6968 C.3     1  UNL1        0.1147
     11 H          59.1350   91.6471    1.3679 H       1  UNL1        0.1564
     12 C          59.4726   95.7957   -3.7765 C.ar    1  UNL1        0.1365
     13 N          58.1413   96.0395   -4.4233 N.ar    1  UNL1       -0.1990
     14 C          58.0743   96.5695   -5.8248 C.ar    1  UNL1        0.2153
     15 N          56.7430   96.8133   -6.4717 N.pl3   1  UNL1       -0.3274
     16 N          59.3386   96.8557   -6.5798 N.ar    1  UNL1       -0.2073
     17 C          60.6698   96.6119   -5.9329 C.ar    1  UNL1        0.1163
     18 S          62.0742   96.7990   -6.4254 S.2     1  UNL1       -0.0673
     19 C          63.0092   96.3847   -5.3281 C.ar    1  UNL1        0.0370
     20 C          62.1827   95.9415   -4.1575 C.ar    1  UNL1        0.0118
     21 C          60.7368   96.0819   -4.5313 C.ar    1  UNL1        0.0561
     22 H          55.9133   96.6254   -5.9763 H       1  UNL1        0.1452
     23 H          56.6990   97.1611   -7.3916 H       1  UNL1        0.1452
     24 C          59.6025   90.6511    6.3114 C.ar    1  UNL1        0.1385
     25 C          58.2772   91.0117    5.7085 C.ar    1  UNL1        0.0382
     26 C          58.2101   91.5417    4.3069 C.ar    1  UNL1        0.0175
     27 C          59.4685   91.7110    3.5081 C.ar    1  UNL1        0.0478
     28 C          60.7938   91.3504    4.1111 C.ar    1  UNL1       -0.0053
     29 C          62.0522   91.5197    3.3123 C.3     1  UNL1        0.0324
     30 C          60.8608   90.8204    5.5127 C.ar    1  UNL1        0.0339
     31 C          59.5801   88.6446    7.9617 C.3     1  UNL1        0.2525
     32 O          59.6695   90.1211    7.7131 O.3     1  UNL1       -0.4714
@<TRIPOS>BOND
     1    31    32    1
     2    32    24    1
     3    24    25   ar
     4    25    26   ar
     5    26    27   ar
     6    27     1    1
     7     1     2   am
     8     2     3    2
     9     2     4   am
    10     4     5    1
    11     5     6    1
    12     6     7    1
    13     7    12    1
    14    12    13   ar
    15    13    14   ar
    16    14    15    1
    17    14    16   ar
    18    16    17   ar
    19    17    18   ar
    20    18    19   ar
    21    19    20   ar
    22    20    21   ar
    23     7     8    1
    24     8     9    1
    25     8    10    1
    26    27    28   ar
    27    28    29    1
    28    28    30   ar
    29    30    24   ar
    30    10     4    1
    31    21    12   ar
    32    21    17   ar
    33     1    11    1
    34    15    22    1
    35    15    23    1
@<TRIPOS>MOLECULE
*****
 32 35 0 0 0
SMALL
GASTEIGER

@<TRIPOS>ATOM
      1 N          64.9961   90.5008   13.5513 N.am    1  UNL1       -0.2684
      2 C          64.3664   91.0075   12.2876 C.2     1  UNL1        0.3078
      3 O          64.5773   92.4305   11.8628 O.2     1  UNL1       -0.2522
      4 N          63.5258   90.0912   11.4488 N.am    1  UNL1       -0.2605
      5 C          62.8960   90.5978   10.1852 C.3     1  UNL1        0.1164
      6 C          62.0554   89.6815    9.3464 C.3     1  UNL1        0.1137
      7 N          61.8445   88.2584    9.7712 N.pl3   1  UNL1       -0.2913
      8 C          62.4742   87.7517   11.0348 C.3     1  UNL1        0.0941
      9 C          62.2633   86.3287   11.4596 C.3     1  UNL1        0.0233
     10 C          63.3149   88.6681   11.8736 C.3     1  UNL1        0.1147
     11 H          64.8577   89.5668   13.8301 H       1  UNL1        0.1564
     12 C          61.0039   87.3421    8.9324 C.ar    1  UNL1        0.1365
     13 N          59.5179   87.5364    8.8681 N.ar    1  UNL1       -0.1990
     14 C          58.6773   86.6201    8.0293 C.ar    1  UNL1        0.2153
     15 N          57.1913   86.8145    7.9650 N.pl3   1  UNL1       -0.3274
     16 N          59.3226   85.5094    7.2547 N.ar    1  UNL1       -0.2073
     17 C          60.8085   85.3150    7.3190 C.ar    1  UNL1        0.1163
     18 S          61.7190   84.3153    6.6697 S.2     1  UNL1       -0.0673
     19 C          63.1223   84.6137    7.1073 C.ar    1  UNL1        0.0370
     20 C          63.0792   85.7979    8.0270 C.ar    1  UNL1        0.0118
     21 C          61.6492   86.2314    8.1578 C.ar    1  UNL1        0.0561
     22 H          56.7677   87.5435    8.4734 H       1  UNL1        0.1452
     23 H          56.6395   86.2131    7.4145 H       1  UNL1        0.1452
     24 C          67.5180   93.2499   16.0677 C.ar    1  UNL1        0.1385
     25 C          68.0229   92.7774   14.7366 C.ar    1  UNL1        0.0382
     26 C          67.1824   91.8611   13.8978 C.ar    1  UNL1        0.0175
     27 C          65.8367   91.4171   14.3900 C.ar    1  UNL1        0.0478
     28 C          65.3318   91.8896   15.7212 C.ar    1  UNL1       -0.0053
     29 C          63.9862   91.4457   16.2135 C.3     1  UNL1        0.0324
     30 C          66.1724   92.8060   16.5600 C.ar    1  UNL1        0.0339
     31 C          69.5179   94.8931   16.2919 C.3     1  UNL1        0.2525
     32 O          68.3587   94.1663   16.9065 O.3     1  UNL1       -0.4714
@<TRIPOS>BOND
     1    31    32    1
     2    32    24    1
     3    24    25   ar
     4    25    26   ar
     5    26    27   ar
     6    27     1    1
     7     1     2   am
     8     2     3    2
     9     2     4   am
    10     4     5    1
    11     5     6    1
    12     6     7    1
    13     7    12    1
    14    12    13   ar
    15    13    14   ar
    16    14    15    1
    17    14    16   ar
    18    16    17   ar
    19    17    18   ar
    20    18    19   ar
    21    19    20   ar
    22    20    21   ar
    23     7     8    1
    24     8     9    1
    25     8    10    1
    26    27    28   ar
    27    28    29    1
    28    28    30   ar
    29    30    24   ar
    30    10     4    1
    31    21    12   ar
    32    21    17   ar
    33     1    11    1
    34    15    22    1
    35    15    23    1
@<TRIPOS>MOLECULE
*****
 32 35 0 0 0
SMALL
GASTEIGER

@<TRIPOS>ATOM
      1 N          62.8783   85.6279   13.0425 N.am    1  UNL1       -0.2684
      2 C          63.7327   86.3126   14.0678 C.2     1  UNL1        0.3078
      3 O          64.1482   85.5791   15.3085 O.2     1  UNL1       -0.2522
      4 N          64.1716   87.7306   13.8524 N.am    1  UNL1       -0.2605
      5 C          65.0261   88.4153   14.8777 C.3     1  UNL1        0.1164
      6 C          65.4650   89.8333   14.6623 C.3     1  UNL1        0.1137
      7 N          65.0495   90.5668   13.4215 N.pl3   1  UNL1       -0.2913
      8 C          64.1951   89.8822   12.3962 C.3     1  UNL1        0.0941
      9 C          63.7796   90.6156   11.1555 C.3     1  UNL1        0.0233
     10 C          63.7562   88.4640   12.6117 C.3     1  UNL1        0.1147
     11 H          62.6056   86.1092   12.2281 H       1  UNL1        0.1564
     12 C          65.4884   91.9849   13.2061 C.ar    1  UNL1        0.1365
     13 N          65.0459   92.7291   11.9812 N.ar    1  UNL1       -0.1990
     14 C          65.4848   94.1471   11.7658 C.ar    1  UNL1        0.2153
     15 N          65.0423   94.8913   10.5409 N.pl3   1  UNL1       -0.3274
     16 N          66.3663   94.8210   12.7753 N.ar    1  UNL1       -0.2073
     17 C          66.8087   94.0768   14.0002 C.ar    1  UNL1        0.1163
     18 S          67.6713   94.4764   15.1604 S.2     1  UNL1       -0.0673
     19 C          67.7655   93.3053   16.0929 C.ar    1  UNL1        0.0370
     20 C          66.9611   92.1819   15.5090 C.ar    1  UNL1        0.0118
     21 C          66.3698   92.6587   14.2156 C.ar    1  UNL1        0.0561
     22 H          64.4638   94.4491    9.8783 H       1  UNL1        0.1452
     23 H          65.3304   95.8221   10.3995 H       1  UNL1        0.1452
     24 C          61.5616   81.3737   13.6887 C.ar    1  UNL1        0.1385
     25 C          61.4127   82.3805   14.7906 C.ar    1  UNL1        0.0382
     26 C          61.8515   83.7986   14.5753 C.ar    1  UNL1        0.0175
     27 C          62.4394   84.2099   13.2579 C.ar    1  UNL1        0.0478
     28 C          62.5884   83.2030   12.1560 C.ar    1  UNL1       -0.0053
     29 C          63.1762   83.6142   10.8387 C.3     1  UNL1        0.0324
     30 C          62.1494   81.7849   12.3714 C.ar    1  UNL1        0.0339
     31 C          59.6953   79.6575   14.2561 C.3     1  UNL1        0.2525
     32 O          61.1227   79.9556   13.9042 O.3     1  UNL1       -0.4714
@<TRIPOS>BOND
     1    31    32    1
     2    32    24    1
     3    24    25   ar
     4    25    26   ar
     5    26    27   ar
     6    27     1    1
     7     1     2   am
     8     2     3    2
     9     2     4   am
    10     4     5    1
    11     5     6    1
    12     6     7    1
    13     7    12    1
    14    12    13   ar
    15    13    14   ar
    16    14    15    1
    17    14    16   ar
    18    16    17   ar
    19    17    18   ar
    20    18    19   ar
    21    19    20   ar
    22    20    21   ar
    23     7     8    1
    24     8     9    1
    25     8    10    1
    26    27    28   ar
    27    28    29    1
    28    28    30   ar
    29    30    24   ar
    30    10     4    1
    31    21    12   ar
    32    21    17   ar
    33     1    11    1
    34    15    22    1
    35    15    23    1
@<TRIPOS>MOLECULE
*****
 32 35 0 0 0
SMALL
GASTEIGER

@<TRIPOS>ATOM
      1 N          60.7795   90.1872    6.9093 N.am    1  UNL1       -0.2684
      2 C          59.7676   90.8481    6.0209 C.2     1  UNL1        0.3078
      3 O          58.3386   90.9576    6.4637 O.2     1  UNL1       -0.2522
      4 N          60.1846   91.3995    4.6898 N.am    1  UNL1       -0.2605
      5 C          59.1727   92.0604    3.8013 C.3     1  UNL1        0.1164
      6 C          59.5898   92.6118    2.4702 C.3     1  UNL1        0.1137
      7 N          61.0188   92.5023    2.0274 N.pl3   1  UNL1       -0.2913
      8 C          62.0307   91.8414    2.9158 C.3     1  UNL1        0.0941
      9 C          63.4597   91.7319    2.4730 C.3     1  UNL1        0.0233
     10 C          61.6136   91.2900    4.2470 C.3     1  UNL1        0.1147
     11 H          61.7174   90.1153    6.6187 H       1  UNL1        0.1564
     12 C          61.4359   93.0537    0.6962 C.ar    1  UNL1        0.1365
     13 N          62.8091   93.6309    0.5204 N.ar    1  UNL1       -0.1990
     14 C          63.2262   94.1823   -0.8106 C.ar    1  UNL1        0.2153
     15 N          64.5995   94.7596   -0.9864 N.pl3   1  UNL1       -0.3274
     16 N          62.2700   94.1565   -1.9661 N.ar    1  UNL1       -0.2073
     17 C          60.8967   93.5793   -1.7904 C.ar    1  UNL1        0.1163
     18 S          59.7465   93.4185   -2.7397 S.2     1  UNL1       -0.0673
     19 C          58.6186   92.7678   -1.9952 C.ar    1  UNL1        0.0370
     20 C          59.0717   92.5263   -0.5858 C.ar    1  UNL1        0.0118
     21 C          60.4796   93.0279   -0.4592 C.ar    1  UNL1        0.0561
     22 H          65.2271   94.7765   -0.2281 H       1  UNL1        0.1452
     23 H          64.8733   95.1215   -1.8601 H       1  UNL1        0.1452
     24 C          59.5283   88.5330   10.9028 C.ar    1  UNL1        0.1385
     25 C          60.1360   89.9015   10.8149 C.ar    1  UNL1        0.0382
     26 C          60.5531   90.4530    9.4838 C.ar    1  UNL1        0.0175
     27 C          60.3624   89.6358    8.2404 C.ar    1  UNL1        0.0478
     28 C          59.7547   88.2672    8.3283 C.ar    1  UNL1       -0.0053
     29 C          59.5641   87.4500    7.0850 C.3     1  UNL1        0.0324
     30 C          59.3377   87.7158    9.6595 C.ar    1  UNL1        0.0339
     31 C          58.2494   88.8008   13.1484 C.3     1  UNL1        0.2525
     32 O          59.1112   87.9816   12.2340 O.3     1  UNL1       -0.4714
@<TRIPOS>BOND
     1    31    32    1
     2    32    24    1
     3    24    25   ar
     4    25    26   ar
     5    26    27   ar
     6    27     1    1
     7     1     2   am
     8     2     3    2
     9     2     4   am
    10     4     5    1
    11     5     6    1
    12     6     7    1
    13     7    12    1
    14    12    13   ar
    15    13    14   ar
    16    14    15    1
    17    14    16   ar
    18    16    17   ar
    19    17    18   ar
    20    18    19   ar
    21    19    20   ar
    22    20    21   ar
    23     7     8    1
    24     8     9    1
    25     8    10    1
    26    27    28   ar
    27    28    29    1
    28    28    30   ar
    29    30    24   ar
    30    10     4    1
    31    21    12   ar
    32    21    17   ar
    33     1    11    1
    34    15    22    1
    35    15    23    1
@<TRIPOS>MOLECULE
*****
 32 35 0 0 0
SMALL
GASTEIGER

@<TRIPOS>ATOM
      1 N          64.0078   87.0410   14.0171 N.am    1  UNL1       -0.2684
      2 C          63.4659   87.8924   12.9073 C.2     1  UNL1        0.3078
      3 O          62.3397   87.3865   12.0554 O.2     1  UNL1       -0.2522
      4 N          64.0503   89.2495   12.6494 N.am    1  UNL1       -0.2605
      5 C          63.5084   90.1010   11.5396 C.3     1  UNL1        0.1164
      6 C          64.0927   91.4581   11.2818 C.3     1  UNL1        0.1137
      7 N          65.2190   91.9640   12.1337 N.pl3   1  UNL1       -0.2913
      8 C          65.7609   91.1127   13.2435 C.3     1  UNL1        0.0941
      9 C          66.8871   91.6185   14.0953 C.3     1  UNL1        0.0233
     10 C          65.1765   89.7554   13.5013 C.3     1  UNL1        0.1147
     11 H          64.7470   87.3730   14.5762 H       1  UNL1        0.1564
     12 C          65.8034   93.3212   11.8758 C.ar    1  UNL1        0.1365
     13 N          65.6506   94.4098   12.8964 N.ar    1  UNL1       -0.1990
     14 C          66.2349   95.7670   12.6385 C.ar    1  UNL1        0.2153
     15 N          66.0820   96.8557   13.6592 N.pl3   1  UNL1       -0.3274
     16 N          66.9721   96.0357   11.3600 N.ar    1  UNL1       -0.2073
     17 C          67.1249   94.9471   10.3395 C.ar    1  UNL1        0.1163
     18 S          67.7941   94.9163    8.9974 S.2     1  UNL1       -0.0673
     19 C          67.6234   93.5400    8.4259 C.ar    1  UNL1        0.0370
     20 C          66.8486   92.7202    9.4147 C.ar    1  UNL1        0.0118
     21 C          66.5405   93.5898   10.5974 C.ar    1  UNL1        0.0561
     22 H          65.5982   96.6794   14.4983 H       1  UNL1        0.1452
     23 H          66.4655   97.7464   13.4899 H       1  UNL1        0.1452
     24 C          62.2547   82.9694   14.7907 C.ar    1  UNL1        0.1385
     25 C          62.6628   83.3585   13.4007 C.ar    1  UNL1        0.0382
     26 C          63.2471   84.7157   13.1428 C.ar    1  UNL1        0.0175
     27 C          63.4235   85.6838   14.2749 C.ar    1  UNL1        0.0478
     28 C          63.0154   85.2947   15.6650 C.ar    1  UNL1       -0.0053
     29 C          63.1917   86.2627   16.7971 C.3     1  UNL1        0.0324
     30 C          62.4311   83.9375   15.9228 C.ar    1  UNL1        0.0339
     31 C          61.0972   80.8146   13.9148 C.3     1  UNL1        0.2525
     32 O          61.6704   81.6122   15.0485 O.3     1  UNL1       -0.4714
@<TRIPOS>BOND
     1    31    32    1
     2    32    24    1
     3    24    25   ar
     4    25    26   ar
     5    26    27   ar
     6    27     1    1
     7     1     2   am
     8     2     3    2
     9     2     4   am
    10     4     5    1
    11     5     6    1
    12     6     7    1
    13     7    12    1
    14    12    13   ar
    15    13    14   ar
    16    14    15    1
    17    14    16   ar
    18    16    17   ar
    19    17    18   ar
    20    18    19   ar
    21    19    20   ar
    22    20    21   ar
    23     7     8    1
    24     8     9    1
    25     8    10    1
    26    27    28   ar
    27    28    29    1
    28    28    30   ar
    29    30    24   ar
    30    10     4    1
    31    21    12   ar
    32    21    17   ar
    33     1    11    1
    34    15    22    1
    35    15    23    1
@<TRIPOS>MOLECULE
*****
 32 35 0 0 0
SMALL
GASTEIGER

@<TRIPOS>ATOM
      1 N          63.4982   85.4598   13.8810 N.am    1  UNL1       -0.2684
      2 C          63.0174   86.5508   12.9707 C.2     1  UNL1        0.3078
      3 O          61.9239   86.2749   11.9817 O.2     1  UNL1       -0.2522
      4 N          63.6299   87.9177   13.0495 N.am    1  UNL1       -0.2605
      5 C          63.1491   89.0088   12.1393 C.3     1  UNL1        0.1164
      6 C          63.7617   90.3756   12.2181 C.3     1  UNL1        0.1137
      7 N          64.8552   90.6516   13.2072 N.pl3   1  UNL1       -0.2913
      8 C          65.3360   89.5606   14.1175 C.3     1  UNL1        0.0941
      9 C          66.4294   89.8366   15.1065 C.3     1  UNL1        0.0233
     10 C          64.7233   88.1937   14.0386 C.3     1  UNL1        0.1147
     11 H          64.2158   85.6409   14.5302 H       1  UNL1        0.1564
     12 C          65.4678   92.0185   13.2860 C.ar    1  UNL1        0.1365
     13 N          66.0830   92.4918   14.5696 N.ar    1  UNL1       -0.1990
     14 C          66.6955   93.8587   14.6484 C.ar    1  UNL1        0.2153
     15 N          67.3108   94.3320   15.9320 N.pl3   1  UNL1       -0.3274
     16 N          66.6930   94.7524   13.4436 N.ar    1  UNL1       -0.2073
     17 C          66.0778   94.2791   12.1601 C.ar    1  UNL1        0.1163
     18 S          65.9279   94.9324   10.8182 S.2     1  UNL1       -0.0673
     19 C          65.2226   93.9691    9.9100 C.ar    1  UNL1        0.0370
     20 C          64.9367   92.7206   10.6906 C.ar    1  UNL1        0.0118
     21 C          65.4652   92.9122   12.0813 C.ar    1  UNL1        0.0561
     22 H          67.3125   93.7455   16.7227 H       1  UNL1        0.1452
     23 H          67.7128   95.2292   15.9838 H       1  UNL1        0.1452
     24 C          61.6604   81.3590   13.6445 C.ar    1  UNL1        0.1385
     25 C          61.3811   82.2390   14.8267 C.ar    1  UNL1        0.0382
     26 C          61.9937   83.6059   14.9056 C.ar    1  UNL1        0.0175
     27 C          62.8856   84.0929   13.8022 C.ar    1  UNL1        0.0478
     28 C          63.1648   83.2129   12.6199 C.ar    1  UNL1       -0.0053
     29 C          64.0567   83.6998   11.5165 C.3     1  UNL1        0.0324
     30 C          62.5522   81.8459   12.5411 C.ar    1  UNL1        0.0339
     31 C          59.6999   79.7381   14.1729 C.3     1  UNL1        0.2525
     32 O          61.0477   79.9921   13.5657 O.3     1  UNL1       -0.4714
@<TRIPOS>BOND
     1    31    32    1
     2    32    24    1
     3    24    25   ar
     4    25    26   ar
     5    26    27   ar
     6    27     1    1
     7     1     2   am
     8     2     3    2
     9     2     4   am
    10     4     5    1
    11     5     6    1
    12     6     7    1
    13     7    12    1
    14    12    13   ar
    15    13    14   ar
    16    14    15    1
    17    14    16   ar
    18    16    17   ar
    19    17    18   ar
    20    18    19   ar
    21    19    20   ar
    22    20    21   ar
    23     7     8    1
    24     8     9    1
    25     8    10    1
    26    27    28   ar
    27    28    29    1
    28    28    30   ar
    29    30    24   ar
    30    10     4    1
    31    21    12   ar
    32    21    17   ar
    33     1    11    1
    34    15    22    1
    35    15    23    1
