@<TRIPOS>MOLECULE
*****
 39 43 0 0 0
SMALL
GASTEIGER

@<TRIPOS>ATOM
      1 C          59.4875   89.3126    7.0753 C.3     1  UNL1        0.0453
      2 C          60.2661   89.8959    8.2170 C.3     1  UNL1        0.0275
      3 C          60.9338   88.9906    9.2095 C.3     1  UNL1        0.0941
      4 N          60.8228   87.5022    9.0601 N.am    1  UNL1       -0.2760
      5 C          61.4905   86.5971   10.0525 C.2     1  UNL1        0.2502
      6 O          61.3796   85.1086    9.9031 O.2     1  UNL1       -0.2699
      7 C          60.0443   86.9190    7.9183 C.3     1  UNL1        0.0941
      8 C          59.3766   87.8242    6.9259 C.3     1  UNL1        0.0275
      9 C          61.2883   92.4310    3.0401 C.ar    1  UNL1        0.0689
     10 C          61.9560   91.5258    4.0325 C.ar    1  UNL1        0.1134
     11 N          61.1332   90.7881    5.0467 N.ar    1  UNL1       -0.2398
     12 C          59.6427   90.9556    5.0686 C.ar    1  UNL1        0.1125
     13 C          58.8199   90.2178    6.0829 C.ar    1  UNL1        0.0795
     14 N          57.3294   90.3852    6.1047 N.ar    1  UNL1       -0.2268
     15 C          56.6618   91.2904    5.1122 C.ar    1  UNL1        0.1986
     16 N          57.4846   92.0281    4.0980 N.ar    1  UNL1       -0.2224
     17 C          58.9750   91.8607    4.0762 C.ar    1  UNL1        0.1031
     18 C          59.7979   92.5984    3.0619 C.ar    1  UNL1        0.0368
     19 C          64.5794   95.3821   -1.0170 C.3     1  UNL1        0.0897
     20 N          63.7567   94.6443   -0.0027 N.3     1  UNL1       -0.2686
     21 C          64.3837   93.5666    0.8312 C.3     1  UNL1        0.0938
     22 C          63.5609   92.8288    1.8455 C.3     1  UNL1        0.1082
     23 N          62.1111   93.1688    2.0258 N.pl3   1  UNL1       -0.3034
     24 C          61.4841   94.2464    1.1919 C.3     1  UNL1        0.1082
     25 C          62.3068   94.9842    0.1776 C.3     1  UNL1        0.0938
     26 C          62.2691   87.1803   11.1943 C.ar    1  UNL1        0.0666
     27 C          62.4382   88.6666   11.3050 C.ar    1  UNL1        0.0089
     28 C          63.2168   89.2498   12.4468 C.ar    1  UNL1        0.0374
     29 C          63.8262   88.3468   13.4778 C.ar    1  UNL1        0.1480
     30 C          63.6571   86.8604   13.3671 C.ar    1  UNL1        0.0514
     31 C          62.8785   86.2772   12.2253 C.ar    1  UNL1        0.0489
     32 N          62.7094   84.7909   12.1145 N.pl3   1  UNL1       -0.3568
     33 H          63.1094   84.1982   12.7912 H       1  UNL1        0.1424
     34 H          62.1984   84.4081   11.3651 H       1  UNL1        0.1424
     35 O          64.6048   88.9300   14.6196 O.3     1  UNL1       -0.4044
     36 C          63.8955   89.6927   15.6990 C.3     1  UNL1        0.5753
     37 F          63.1862   90.4553   16.7784 F       1  UNL1       -0.1328
     38 F          63.4857   88.4011   16.3423 F       1  UNL1       -0.1328
     39 F          64.3053   90.9842   15.0557 F       1  UNL1       -0.1328
@<TRIPOS>BOND
     1    19    20    1
     2    20    21    1
     3    21    22    1
     4    22    23    1
     5    23     9    1
     6     9    10   ar
     7    10    11   ar
     8    11    12   ar
     9    12    13   ar
    10    13     1    1
    11     1     2    1
    12     2     3    1
    13     3     4    1
    14     4     5   am
    15     5     6    2
    16     5    26    1
    17    26    27   ar
    18    27    28   ar
    19    28    29   ar
    20    29    35    1
    21    35    36    1
    22    36    37    1
    23    36    38    1
    24    36    39    1
    25    29    30   ar
    26    30    31   ar
    27    31    32    1
    28     4     7    1
    29     7     8    1
    30    13    14   ar
    31    14    15   ar
    32    15    16   ar
    33    16    17   ar
    34    17    18   ar
    35    23    24    1
    36    24    25    1
    37    25    20    1
    38    18     9   ar
    39    17    12   ar
    40     8     1    1
    41    31    26   ar
    42    32    33    1
    43    32    34    1
@<TRIPOS>MOLECULE
*****
 39 43 0 0 0
SMALL
GASTEIGER

@<TRIPOS>ATOM
      1 C          61.0549   92.0087    3.4647 C.3     1  UNL1        0.0453
      2 C          61.7244   90.9728    4.3183 C.3     1  UNL1        0.0275
      3 C          60.9299   90.2164    5.3415 C.3     1  UNL1        0.0941
      4 N          59.4660   90.4961    5.5111 N.am    1  UNL1       -0.2760
      5 C          58.6716   89.7398    6.5342 C.2     1  UNL1        0.2502
      6 O          57.2077   90.0194    6.7038 O.2     1  UNL1       -0.2699
      7 C          58.7965   91.5320    4.6575 C.3     1  UNL1        0.0941
      8 C          59.5910   92.2884    3.6344 C.3     1  UNL1        0.0275
      9 C          60.1847   93.3818   -1.6934 C.ar    1  UNL1        0.0689
     10 C          59.3903   92.6255   -0.6703 C.ar    1  UNL1        0.1134
     11 N          59.9452   92.4199    0.7080 N.ar    1  UNL1       -0.2398
     12 C          61.2945   92.9707    1.0632 C.ar    1  UNL1        0.1125
     13 C          61.8493   92.7650    2.4416 C.ar    1  UNL1        0.0795
     14 N          63.1986   93.3158    2.7968 N.ar    1  UNL1       -0.2268
     15 C          63.9930   94.0721    1.7736 C.ar    1  UNL1        0.1986
     16 N          63.4381   94.2777    0.3952 N.ar    1  UNL1       -0.2224
     17 C          62.0889   93.7270    0.0401 C.ar    1  UNL1        0.1031
     18 C          61.5340   93.9325   -1.3383 C.ar    1  UNL1        0.0368
     19 C          57.9653   94.2042   -7.2069 C.3     1  UNL1        0.0897
     20 N          58.5201   93.9986   -5.8286 N.3     1  UNL1       -0.2686
     21 C          59.7826   94.6960   -5.4166 C.3     1  UNL1        0.0938
     22 C          60.3375   94.4904   -4.0382 C.3     1  UNL1        0.1082
     23 N          59.6299   93.5874   -3.0718 N.pl3   1  UNL1       -0.3034
     24 C          58.3674   92.8900   -3.4838 C.3     1  UNL1        0.1082
     25 C          57.8125   93.0956   -4.8622 C.3     1  UNL1        0.0938
     26 C          59.3411   88.7038    7.3878 C.ar    1  UNL1        0.0666
     27 C          59.3658   87.2704    6.9467 C.ar    1  UNL1        0.0089
     28 C          60.0352   86.2344    7.8003 C.ar    1  UNL1        0.0374
     29 C          60.6800   86.6319    9.0949 C.ar    1  UNL1        0.1480
     30 C          60.6554   88.0654    9.5361 C.ar    1  UNL1        0.0514
     31 C          59.9859   89.1014    8.6825 C.ar    1  UNL1        0.0489
     32 N          59.9613   90.5348    9.1236 N.pl3   1  UNL1       -0.3568
     33 H          60.3845   90.7957    9.9733 H       1  UNL1        0.1424
     34 H          59.5219   91.2147    8.5633 H       1  UNL1        0.1424
     35 O          61.3495   85.5959    9.9485 O.3     1  UNL1       -0.4044
     36 C          62.7018   85.0702    9.5678 C.3     1  UNL1        0.5753
     37 F          64.0540   84.5444    9.1871 F       1  UNL1       -0.1328
     38 F          62.7703   86.0607    8.4435 F       1  UNL1       -0.1328
     39 F          62.6332   84.0796   10.6921 F       1  UNL1       -0.1328
@<TRIPOS>BOND
     1    19    20    1
     2    20    21    1
     3    21    22    1
     4    22    23    1
     5    23     9    1
     6     9    10   ar
     7    10    11   ar
     8    11    12   ar
     9    12    13   ar
    10    13     1    1
    11     1     2    1
    12     2     3    1
    13     3     4    1
    14     4     5   am
    15     5     6    2
    16     5    26    1
    17    26    27   ar
    18    27    28   ar
    19    28    29   ar
    20    29    35    1
    21    35    36    1
    22    36    37    1
    23    36    38    1
    24    36    39    1
    25    29    30   ar
    26    30    31   ar
    27    31    32    1
    28     4     7    1
    29     7     8    1
    30    13    14   ar
    31    14    15   ar
    32    15    16   ar
    33    16    17   ar
    34    17    18   ar
    35    23    24    1
    36    24    25    1
    37    25    20    1
    38    18     9   ar
    39    17    12   ar
    40     8     1    1
    41    31    26   ar
    42    32    33    1
    43    32    34    1
@<TRIPOS>MOLECULE
*****
 39 43 0 0 0
SMALL
GASTEIGER

@<TRIPOS>ATOM
      1 C          59.6755   89.5610    7.4271 C.3     1  UNL1        0.0453
      2 C          60.1346   88.1466    7.2304 C.3     1  UNL1        0.0275
      3 C          60.8880   87.4441    8.3208 C.3     1  UNL1        0.0941
      4 N          61.1823   88.1560    9.6078 N.am    1  UNL1       -0.2760
      5 C          61.9357   87.4535   10.6981 C.2     1  UNL1        0.2502
      6 O          62.2300   88.1653   11.9853 O.2     1  UNL1       -0.2699
      7 C          60.7232   89.5704    9.8045 C.3     1  UNL1        0.0941
      8 C          59.9699   90.2729    8.7142 C.3     1  UNL1        0.0275
      9 C          61.1618   92.3413    3.0327 C.ar    1  UNL1        0.0689
     10 C          61.9152   91.6387    4.1230 C.ar    1  UNL1        0.1134
     11 N          61.1686   90.9462    5.2243 N.ar    1  UNL1       -0.2398
     12 C          59.6687   90.9561    5.2353 C.ar    1  UNL1        0.1125
     13 C          58.9222   90.2635    6.3368 C.ar    1  UNL1        0.0795
     14 N          57.4222   90.2735    6.3478 N.ar    1  UNL1       -0.2268
     15 C          56.6689   90.9760    5.2573 C.ar    1  UNL1        0.1986
     16 N          57.4154   91.6686    4.1560 N.ar    1  UNL1       -0.2224
     17 C          58.9153   91.6586    4.1450 C.ar    1  UNL1        0.1031
     18 C          59.6619   92.3512    3.0437 C.ar    1  UNL1        0.0368
     19 C          64.1480   95.1116   -1.3728 C.3     1  UNL1        0.0897
     20 N          63.4015   94.4190   -0.2714 N.3     1  UNL1       -0.2686
     21 C          61.9037   94.4846   -0.2241 C.3     1  UNL1        0.0938
     22 C          61.1571   93.7919    0.8773 C.3     1  UNL1        0.1082
     23 N          61.9084   93.0339    1.9313 N.pl3   1  UNL1       -0.3034
     24 C          63.4062   92.9683    1.8839 C.3     1  UNL1        0.1082
     25 C          64.1528   93.6609    0.7826 C.3     1  UNL1        0.0938
     26 C          62.3948   86.0390   10.5014 C.ar    1  UNL1        0.0666
     27 C          62.8255   85.5725    9.1425 C.ar    1  UNL1        0.0089
     28 C          63.2846   84.1581    8.9458 C.ar    1  UNL1        0.0374
     29 C          63.3129   83.2102   10.1080 C.ar    1  UNL1        0.1480
     30 C          62.8821   83.6768   11.4670 C.ar    1  UNL1        0.0514
     31 C          62.4230   85.0912   11.6637 C.ar    1  UNL1        0.0489
     32 N          61.9923   85.5577   13.0226 N.pl3   1  UNL1       -0.3568
     33 H          62.0108   84.9356   13.7854 H       1  UNL1        0.1424
     34 H          61.6910   86.4861   13.1517 H       1  UNL1        0.1424
     35 O          63.7720   81.7958    9.9112 O.3     1  UNL1       -0.4044
     36 C          63.2184   80.7008   10.7740 C.3     1  UNL1        0.5753
     37 F          62.6649   79.6057   11.6368 F       1  UNL1       -0.1328
     38 F          63.8040   81.3606   11.9871 F       1  UNL1       -0.1328
     39 F          62.6329   80.0410    9.5609 F       1  UNL1       -0.1328
@<TRIPOS>BOND
     1    19    20    1
     2    20    21    1
     3    21    22    1
     4    22    23    1
     5    23     9    1
     6     9    10   ar
     7    10    11   ar
     8    11    12   ar
     9    12    13   ar
    10    13     1    1
    11     1     2    1
    12     2     3    1
    13     3     4    1
    14     4     5   am
    15     5     6    2
    16     5    26    1
    17    26    27   ar
    18    27    28   ar
    19    28    29   ar
    20    29    35    1
    21    35    36    1
    22    36    37    1
    23    36    38    1
    24    36    39    1
    25    29    30   ar
    26    30    31   ar
    27    31    32    1
    28     4     7    1
    29     7     8    1
    30    13    14   ar
    31    14    15   ar
    32    15    16   ar
    33    16    17   ar
    34    17    18   ar
    35    23    24    1
    36    24    25    1
    37    25    20    1
    38    18     9   ar
    39    17    12   ar
    40     8     1    1
    41    31    26   ar
    42    32    33    1
    43    32    34    1
@<TRIPOS>MOLECULE
*****
 39 43 0 0 0
SMALL
GASTEIGER

@<TRIPOS>ATOM
      1 C          63.9888   89.0599   15.7019 C.3     1  UNL1        0.0453
      2 C          64.3656   89.2212   14.2590 C.3     1  UNL1        0.0275
      3 C          64.9717   90.5076   13.7814 C.3     1  UNL1        0.0941
      4 N          65.2008   91.6326   14.7467 N.am    1  UNL1       -0.2760
      5 C          65.8068   92.9189   14.2692 C.2     1  UNL1        0.2502
      6 O          66.0360   94.0440   15.2345 O.2     1  UNL1       -0.2699
      7 C          64.8239   91.4713   16.1896 C.3     1  UNL1        0.0941
      8 C          64.2179   90.1850   16.6672 C.3     1  UNL1        0.0275
      9 C          63.2308   84.2051   13.4422 C.ar    1  UNL1        0.0689
     10 C          63.8368   85.4914   12.9646 C.ar    1  UNL1        0.1134
     11 N          63.8875   86.6809   13.8770 N.ar    1  UNL1       -0.2398
     12 C          63.3321   86.5840   15.2670 C.ar    1  UNL1        0.1125
     13 C          63.3828   87.7736   16.1795 C.ar    1  UNL1        0.0795
     14 N          62.8274   87.6767   17.5695 N.ar    1  UNL1       -0.2268
     15 C          62.2213   86.3903   18.0471 C.ar    1  UNL1        0.1986
     16 N          62.1707   85.2009   17.1347 N.ar    1  UNL1       -0.2224
     17 C          62.7261   85.2977   15.7446 C.ar    1  UNL1        0.1031
     18 C          62.6755   84.1083   14.8322 C.ar    1  UNL1        0.0368
     19 C          63.0282   79.4470    9.7925 C.3     1  UNL1        0.0897
     20 N          63.0789   80.6365   10.7049 N.3     1  UNL1       -0.2686
     21 C          63.5869   81.9523   10.1943 C.3     1  UNL1        0.0938
     22 C          63.6376   83.1418   11.1068 C.3     1  UNL1        0.1082
     23 N          63.1802   83.0156   12.5297 N.pl3   1  UNL1       -0.3034
     24 C          62.6721   81.6999   13.0403 C.3     1  UNL1        0.1082
     25 C          62.6214   80.5103   12.1279 C.3     1  UNL1        0.0938
     26 C          66.1837   93.0802   12.8263 C.ar    1  UNL1        0.0666
     27 C          65.3014   93.8684   11.9042 C.ar    1  UNL1        0.0089
     28 C          65.6783   94.0297   10.4613 C.ar    1  UNL1        0.0374
     29 C          66.9375   93.4028    9.9405 C.ar    1  UNL1        0.1480
     30 C          67.8199   92.6145   10.8625 C.ar    1  UNL1        0.0514
     31 C          67.4430   92.4532   12.3054 C.ar    1  UNL1        0.0489
     32 N          68.3253   91.6650   13.2274 N.pl3   1  UNL1       -0.3568
     33 H          69.1517   91.2535   12.8856 H       1  UNL1        0.1424
     34 H          68.0779   91.5591   14.1744 H       1  UNL1        0.1424
     35 O          67.3144   93.5641    8.4976 O.3     1  UNL1       -0.4044
     36 C          67.5783   94.9312    7.9397 C.3     1  UNL1        0.5753
     37 F          67.8422   96.2983    7.3818 F       1  UNL1       -0.1328
     38 F          68.5406   95.2018    9.0580 F       1  UNL1       -0.1328
     39 F          66.6160   94.6606    6.8213 F       1  UNL1       -0.1328
@<TRIPOS>BOND
     1    19    20    1
     2    20    21    1
     3    21    22    1
     4    22    23    1
     5    23     9    1
     6     9    10   ar
     7    10    11   ar
     8    11    12   ar
     9    12    13   ar
    10    13     1    1
    11     1     2    1
    12     2     3    1
    13     3     4    1
    14     4     5   am
    15     5     6    2
    16     5    26    1
    17    26    27   ar
    18    27    28   ar
    19    28    29   ar
    20    29    35    1
    21    35    36    1
    22    36    37    1
    23    36    38    1
    24    36    39    1
    25    29    30   ar
    26    30    31   ar
    27    31    32    1
    28     4     7    1
    29     7     8    1
    30    13    14   ar
    31    14    15   ar
    32    15    16   ar
    33    16    17   ar
    34    17    18   ar
    35    23    24    1
    36    24    25    1
    37    25    20    1
    38    18     9   ar
    39    17    12   ar
    40     8     1    1
    41    31    26   ar
    42    32    33    1
    43    32    34    1
