@<TRIPOS>MOLECULE
*****
 28 31 0 0 0
SMALL
GASTEIGER

@<TRIPOS>ATOM
      1 C          65.0690   92.5104   11.7988 C.ar    1  UNL1        0.0515
      2 C          65.7811   92.4143   13.1155 C.ar    1  UNL1        0.0160
      3 C          65.4371   91.3144   14.0757 C.ar    1  UNL1        0.0170
      4 C          64.3811   90.3106   13.7191 C.ar    1  UNL1        0.0650
      5 C          63.6691   90.4067   12.4024 C.ar    1  UNL1        0.0726
      6 CL         62.6130   89.4029   12.0458 Cl      1  UNL1       -0.0809
      7 C          64.0130   91.5066   11.4423 C.ar    1  UNL1        0.0273
      8 N          64.0371   89.2107   14.6793 N.am    1  UNL1       -0.2500
      9 C          64.2574   87.7439   14.4554 C.3     1  UNL1        0.1260
     10 C          63.7689   87.0111   15.6696 C.ar    1  UNL1        0.0130
     11 C          63.7322   85.5517   16.0139 C.ar    1  UNL1        0.0554
     12 CL         64.2544   84.5378   15.0396 Cl      1  UNL1       -0.0825
     13 C          63.1732   85.1061   17.3326 C.ar    1  UNL1        0.0111
     14 C          62.6509   86.1199   18.3069 C.ar    1  UNL1        0.0010
     15 C          62.6877   87.5794   17.9626 C.ar    1  UNL1        0.0043
     16 C          63.2467   88.0250   16.6440 C.ar    1  UNL1        0.0524
     17 C          63.4124   89.3844   16.0319 C.2     1  UNL1        0.2528
     18 O          63.0220   90.6885   16.6619 O.2     1  UNL1       -0.2696
     19 C          66.6961   93.5554   10.0638 C.2     1  UNL1        0.2839
     20 O          67.6354   92.4006   10.2490 O.2     1  UNL1       -0.2665
     21 N          65.4130   93.6103   10.8387 N.am    1  UNL1       -0.2778
     22 H          64.7966   94.3683   10.7171 H       1  UNL1        0.1553
     23 C          66.7056   96.7500   10.7301 C.3     1  UNL1        0.0345
     24 C          67.0445   96.1238    9.4099 C.ar    1  UNL1        0.0204
     25 C          67.4472   96.8559    8.1642 C.ar    1  UNL1        0.0396
     26 C          67.6917   95.8400    7.0880 C.ar    1  UNL1        0.1795
     27 O          67.4401   94.4800    7.6686 O.2     1  UNL1       -0.4461
     28 C          67.0401   94.6553    9.1036 C.ar    1  UNL1        0.1948
@<TRIPOS>BOND
     1    23    24    1
     2    24    25   ar
     3    25    26   ar
     4    26    27   ar
     5    27    28   ar
     6    28    19    1
     7    19    20    2
     8    19    21   am
     9    21     1    1
    10     1     2   ar
    11     2     3   ar
    12     3     4   ar
    13     4     8    1
    14     8     9    1
    15     9    10    1
    16    10    11   ar
    17    11    12    1
    18    11    13   ar
    19    13    14   ar
    20    14    15   ar
    21    15    16   ar
    22    16    17    1
    23    17    18    2
    24     4     5   ar
    25     5     6    1
    26     5     7   ar
    27    28    24   ar
    28     7     1   ar
    29    17     8   am
    30    16    10   ar
    31    21    22    1
@<TRIPOS>MOLECULE
*****
 28 31 0 0 0
SMALL
GASTEIGER

@<TRIPOS>ATOM
      1 C          64.3052   91.1365   12.7079 C.ar    1  UNL1        0.0515
      2 C          64.8765   90.4361   13.9049 C.ar    1  UNL1        0.0160
      3 C          64.5892   88.9812   14.1305 C.ar    1  UNL1        0.0170
      4 C          63.7307   88.2268   13.1591 C.ar    1  UNL1        0.0650
      5 C          63.1593   88.9273   11.9621 C.ar    1  UNL1        0.0726
      6 CL         62.3007   88.1729   10.9906 Cl      1  UNL1       -0.0809
      7 C          63.4466   90.3821   11.7365 C.ar    1  UNL1        0.0273
      8 N          63.4434   86.7720   13.3848 N.am    1  UNL1       -0.2500
      9 C          63.2714   85.7315   12.3181 C.3     1  UNL1        0.1260
     10 C          62.9994   84.4186   12.9908 C.ar    1  UNL1        0.0130
     11 C          62.7486   83.0442   12.4450 C.ar    1  UNL1        0.0554
     12 CL         62.7447   82.8150   10.9626 Cl      1  UNL1       -0.0825
     13 C          62.5018   81.8988   13.3816 C.ar    1  UNL1        0.0111
     14 C          62.5057   82.1280   14.8640 C.ar    1  UNL1        0.0010
     15 C          62.7564   83.5024   15.4098 C.ar    1  UNL1        0.0043
     16 C          63.0032   84.6478   14.4732 C.ar    1  UNL1        0.0524
     17 C          63.2777   86.1022   14.7166 C.2     1  UNL1        0.2528
     18 O          63.3701   86.7697   16.0568 O.2     1  UNL1       -0.2696
     19 C          65.8859   93.0111   11.8492 C.2     1  UNL1        0.2839
     20 O          66.8922   91.9759   11.4417 O.2     1  UNL1       -0.2665
     21 N          64.5925   92.5914   12.4823 N.am    1  UNL1       -0.2778
     22 H          63.9321   93.2708   12.7497 H       1  UNL1        0.1553
     23 C          67.0071   94.3390    9.0871 C.3     1  UNL1        0.0345
     24 C          66.6886   95.0763   10.3539 C.ar    1  UNL1        0.0204
     25 C          66.8294   96.5534   10.5737 C.ar    1  UNL1        0.0396
     26 C          66.4011   96.8560   11.9790 C.ar    1  UNL1        0.1795
     27 O          65.9955   95.5658   12.6279 O.2     1  UNL1       -0.4461
     28 C          66.1732   94.4659   11.6236 C.ar    1  UNL1        0.1948
@<TRIPOS>BOND
     1    23    24    1
     2    24    25   ar
     3    25    26   ar
     4    26    27   ar
     5    27    28   ar
     6    28    19    1
     7    19    20    2
     8    19    21   am
     9    21     1    1
    10     1     2   ar
    11     2     3   ar
    12     3     4   ar
    13     4     8    1
    14     8     9    1
    15     9    10    1
    16    10    11   ar
    17    11    12    1
    18    11    13   ar
    19    13    14   ar
    20    14    15   ar
    21    15    16   ar
    22    16    17    1
    23    17    18    2
    24     4     5   ar
    25     5     6    1
    26     5     7   ar
    27    28    24   ar
    28     7     1   ar
    29    17     8   am
    30    16    10   ar
    31    21    22    1
@<TRIPOS>MOLECULE
*****
 28 31 0 0 0
SMALL
GASTEIGER

@<TRIPOS>ATOM
      1 C          60.6034   88.6239    8.8326 C.ar    1  UNL1        0.0515
      2 C          60.2329   87.1913    8.5867 C.ar    1  UNL1        0.0160
      3 C          60.8004   86.1098    9.4575 C.ar    1  UNL1        0.0170
      4 C          61.7384   86.4608   10.5741 C.ar    1  UNL1        0.0650
      5 C          62.1089   87.8933   10.8200 C.ar    1  UNL1        0.0726
      6 CL         63.0470   88.2444   11.9367 Cl      1  UNL1       -0.0809
      7 C          61.5414   88.9749    9.9493 C.ar    1  UNL1        0.0273
      8 N          62.3060   85.3792   11.4448 N.am    1  UNL1       -0.2500
      9 C          62.1450   85.2693   12.9321 C.3     1  UNL1        0.1260
     10 C          62.8736   84.0398   13.3877 C.ar    1  UNL1        0.0130
     11 C          63.0594   83.4282   14.7446 C.ar    1  UNL1        0.0554
     12 CL         62.4481   84.0781   15.9503 Cl      1  UNL1       -0.0825
     13 C          63.8565   82.1666   14.8958 C.ar    1  UNL1        0.0111
     14 C          64.4678   81.5166   13.6900 C.ar    1  UNL1        0.0010
     15 C          64.2820   82.1283   12.3331 C.ar    1  UNL1        0.0043
     16 C          63.4849   83.3899   12.1819 C.ar    1  UNL1        0.0524
     17 C          63.1341   84.2177   10.9812 C.2     1  UNL1        0.2528
     18 O          63.5401   83.9337    9.5654 O.2     1  UNL1       -0.2696
     19 C          59.3555   89.3509    6.6730 C.2     1  UNL1        0.2839
     20 O          59.2425   87.9148    6.2548 O.2     1  UNL1       -0.2665
     21 N          60.0359   89.7054    7.9619 N.am    1  UNL1       -0.2778
     22 H          60.1101   90.6480    8.2364 H       1  UNL1        0.1553
     23 C          61.0534   91.2932    4.6745 C.3     1  UNL1        0.0345
     24 C          59.5685   91.3253    4.8837 C.ar    1  UNL1        0.0204
     25 C          58.6032   92.2557    4.2109 C.ar    1  UNL1        0.0396
     26 C          57.2261   91.9380    4.7138 C.ar    1  UNL1        0.1795
     27 O          57.3404   90.8112    5.6973 O.2     1  UNL1       -0.4461
     28 C          58.7880   90.4325    5.8023 C.ar    1  UNL1        0.1948
@<TRIPOS>BOND
     1    23    24    1
     2    24    25   ar
     3    25    26   ar
     4    26    27   ar
     5    27    28   ar
     6    28    19    1
     7    19    20    2
     8    19    21   am
     9    21     1    1
    10     1     2   ar
    11     2     3   ar
    12     3     4   ar
    13     4     8    1
    14     8     9    1
    15     9    10    1
    16    10    11   ar
    17    11    12    1
    18    11    13   ar
    19    13    14   ar
    20    14    15   ar
    21    15    16   ar
    22    16    17    1
    23    17    18    2
    24     4     5   ar
    25     5     6    1
    26     5     7   ar
    27    28    24   ar
    28     7     1   ar
    29    17     8   am
    30    16    10   ar
    31    21    22    1
@<TRIPOS>MOLECULE
*****
 28 31 0 0 0
SMALL
GASTEIGER

@<TRIPOS>ATOM
      1 C          64.1322   90.1977   13.0176 C.ar    1  UNL1        0.0515
      2 C          64.6798   89.3731   14.1447 C.ar    1  UNL1        0.0160
      3 C          64.3888   87.9030   14.2087 C.ar    1  UNL1        0.0170
      4 C          63.5503   87.2574   13.1457 C.ar    1  UNL1        0.0650
      5 C          63.0026   88.0820   12.0187 C.ar    1  UNL1        0.0726
      6 CL         62.1640   87.4364   10.9556 Cl      1  UNL1       -0.0809
      7 C          63.2936   89.5521   11.9547 C.ar    1  UNL1        0.0273
      8 N          63.2593   85.7873   13.2097 N.am    1  UNL1       -0.2500
      9 C          63.3886   84.8127   12.0769 C.3     1  UNL1        0.1260
     10 C          62.9972   83.4568   12.5848 C.ar    1  UNL1        0.0130
     11 C          62.9308   82.1154   11.9168 C.ar    1  UNL1        0.0554
     12 CL         63.3021   81.9789   10.4700 Cl      1  UNL1       -0.0825
     13 C          62.4932   80.9105   12.6957 C.ar    1  UNL1        0.0111
     14 C          62.1219   81.0470   14.1426 C.ar    1  UNL1        0.0010
     15 C          62.1882   82.3884   14.8106 C.ar    1  UNL1        0.0043
     16 C          62.6258   83.5933   14.0317 C.ar    1  UNL1        0.0524
     17 C          62.7879   85.0336   14.4179 C.2     1  UNL1        0.2528
     18 O          62.5246   85.6177   15.7742 O.2     1  UNL1       -0.2696
     19 C          65.3029   92.2116   11.8672 C.2     1  UNL1        0.2839
     20 O          65.8917   91.2853   10.8447 O.2     1  UNL1       -0.2665
     21 N          64.4232   91.6678   12.9536 N.am    1  UNL1       -0.2778
     22 H          64.0368   92.2757   13.6247 H       1  UNL1        0.1553
     23 C          66.7664   93.9801   14.1867 C.3     1  UNL1        0.0345
     24 C          66.2666   94.4946   12.8694 C.ar    1  UNL1        0.0204
     25 C          66.3517   95.9123   12.3868 C.ar    1  UNL1        0.0396
     26 C          65.7316   95.9757   11.0224 C.ar    1  UNL1        0.1795
     27 O          65.2632   94.5970   10.6618 O.2     1  UNL1       -0.4461
     28 C          65.5939   93.6817   11.8032 C.ar    1  UNL1        0.1948
@<TRIPOS>BOND
     1    23    24    1
     2    24    25   ar
     3    25    26   ar
     4    26    27   ar
     5    27    28   ar
     6    28    19    1
     7    19    20    2
     8    19    21   am
     9    21     1    1
    10     1     2   ar
    11     2     3   ar
    12     3     4   ar
    13     4     8    1
    14     8     9    1
    15     9    10    1
    16    10    11   ar
    17    11    12    1
    18    11    13   ar
    19    13    14   ar
    20    14    15   ar
    21    15    16   ar
    22    16    17    1
    23    17    18    2
    24     4     5   ar
    25     5     6    1
    26     5     7   ar
    27    28    24   ar
    28     7     1   ar
    29    17     8   am
    30    16    10   ar
    31    21    22    1
@<TRIPOS>MOLECULE
*****
 28 31 0 0 0
SMALL
GASTEIGER

@<TRIPOS>ATOM
      1 C          64.8171   91.0563   13.4293 C.ar    1  UNL1        0.0515
      2 C          64.3464   89.6790   13.7918 C.ar    1  UNL1        0.0160
      3 C          63.4634   88.9159   12.8495 C.ar    1  UNL1        0.0170
      4 C          63.0510   89.5301   11.5447 C.ar    1  UNL1        0.0650
      5 C          63.5216   90.9075   11.1822 C.ar    1  UNL1        0.0726
      6 CL         63.1093   91.5218    9.8773 Cl      1  UNL1       -0.0809
      7 C          64.4047   91.6705   12.1245 C.ar    1  UNL1        0.0273
      8 N          62.1680   88.7671   10.6024 N.am    1  UNL1       -0.2500
      9 C          62.5666   87.5648    9.7989 C.3     1  UNL1        0.1260
     10 C          61.3763   87.1269    8.9980 C.ar    1  UNL1        0.0130
     11 C          61.1788   86.0003    8.0277 C.ar    1  UNL1        0.0554
     12 CL         62.3131   85.0685    7.7192 Cl      1  UNL1       -0.0825
     13 C          59.8469   85.8053    7.3659 C.ar    1  UNL1        0.0111
     14 C          58.7126   86.7370    7.6744 C.ar    1  UNL1        0.0010
     15 C          58.9101   87.8637    8.6447 C.ar    1  UNL1        0.0043
     16 C          60.2420   88.0587    9.3065 C.ar    1  UNL1        0.0524
     17 C          60.7313   89.0723   10.2980 C.2     1  UNL1        0.2528
     18 O          59.9253   90.1942   10.8826 O.2     1  UNL1       -0.2696
     19 C          67.0499   92.2911   13.9186 C.2     1  UNL1        0.2839
     20 O          67.5169   91.9997   12.5232 O.2     1  UNL1       -0.2665
     21 N          65.7001   91.8194   14.3717 N.am    1  UNL1       -0.2778
     22 H          65.3936   92.0106   15.2875 H       1  UNL1        0.1553
     23 C          70.2871   91.9804   14.1902 C.3     1  UNL1        0.0345
     24 C          69.4210   92.9113   14.9857 C.ar    1  UNL1        0.0204
     25 C          69.8906   93.8630   16.0459 C.ar    1  UNL1        0.0396
     26 C          68.6930   94.5939   16.5763 C.ar    1  UNL1        0.1795
     27 O          67.4831   94.0941   15.8439 O.2     1  UNL1       -0.4461
     28 C          67.9330   93.0542   14.8610 C.ar    1  UNL1        0.1948
@<TRIPOS>BOND
     1    23    24    1
     2    24    25   ar
     3    25    26   ar
     4    26    27   ar
     5    27    28   ar
     6    28    19    1
     7    19    20    2
     8    19    21   am
     9    21     1    1
    10     1     2   ar
    11     2     3   ar
    12     3     4   ar
    13     4     8    1
    14     8     9    1
    15     9    10    1
    16    10    11   ar
    17    11    12    1
    18    11    13   ar
    19    13    14   ar
    20    14    15   ar
    21    15    16   ar
    22    16    17    1
    23    17    18    2
    24     4     5   ar
    25     5     6    1
    26     5     7   ar
    27    28    24   ar
    28     7     1   ar
    29    17     8   am
    30    16    10   ar
    31    21    22    1
@<TRIPOS>MOLECULE
*****
 28 31 0 0 0
SMALL
GASTEIGER

@<TRIPOS>ATOM
      1 C          63.9837   91.0763   11.9993 C.ar    1  UNL1        0.0515
      2 C          63.2961   90.2668   10.9402 C.ar    1  UNL1        0.0160
      3 C          63.0136   88.8122   11.1732 C.ar    1  UNL1        0.0170
      4 C          63.4187   88.1671   12.4653 C.ar    1  UNL1        0.0650
      5 C          64.1063   88.9766   13.5244 C.ar    1  UNL1        0.0726
      6 CL         64.5114   88.3315   14.8167 Cl      1  UNL1       -0.0809
      7 C          64.3888   90.4312   13.2914 C.ar    1  UNL1        0.0273
      8 N          63.1361   86.7125   12.6983 N.am    1  UNL1       -0.2500
      9 C          63.1107   86.0214   14.0294 C.3     1  UNL1        0.1260
     10 C          62.7883   84.5753   13.7949 C.ar    1  UNL1        0.0130
     11 C          62.6306   83.4170   14.7347 C.ar    1  UNL1        0.0554
     12 CL         62.8044   83.6197   16.2107 Cl      1  UNL1       -0.0825
     13 C          62.2990   82.0560   14.1984 C.ar    1  UNL1        0.0111
     14 C          62.1252   81.8533   12.7224 C.ar    1  UNL1        0.0010
     15 C          62.2829   83.0116   11.7826 C.ar    1  UNL1        0.0043
     16 C          62.6145   84.3727   12.3188 C.ar    1  UNL1        0.0524
     17 C          62.8295   85.6935   11.6411 C.2     1  UNL1        0.2528
     18 O          62.7515   85.9502   10.1653 O.2     1  UNL1       -0.2696
     19 C          65.6674   92.9874   11.4865 C.2     1  UNL1        0.2839
     20 O          66.7861   91.9892   11.4396 O.2     1  UNL1       -0.2665
     21 N          64.2662   92.5309   11.7663 N.am    1  UNL1       -0.2778
     22 H          63.5320   93.1860   11.7970 H       1  UNL1        0.1553
     23 C          67.1553   94.2581    8.8748 C.3     1  UNL1        0.0345
     24 C          66.6338   95.0260   10.0529 C.ar    1  UNL1        0.0204
     25 C          66.7047   96.5130   10.2376 C.ar    1  UNL1        0.0396
     26 C          66.0646   96.8479   11.5522 C.ar    1  UNL1        0.1795
     27 O          65.5981   95.5679   12.1800 O.2     1  UNL1       -0.4461
     28 C          65.9499   94.4420   11.2535 C.ar    1  UNL1        0.1948
@<TRIPOS>BOND
     1    23    24    1
     2    24    25   ar
     3    25    26   ar
     4    26    27   ar
     5    27    28   ar
     6    28    19    1
     7    19    20    2
     8    19    21   am
     9    21     1    1
    10     1     2   ar
    11     2     3   ar
    12     3     4   ar
    13     4     8    1
    14     8     9    1
    15     9    10    1
    16    10    11   ar
    17    11    12    1
    18    11    13   ar
    19    13    14   ar
    20    14    15   ar
    21    15    16   ar
    22    16    17    1
    23    17    18    2
    24     4     5   ar
    25     5     6    1
    26     5     7   ar
    27    28    24   ar
    28     7     1   ar
    29    17     8   am
    30    16    10   ar
    31    21    22    1
@<TRIPOS>MOLECULE
*****
 28 31 0 0 0
SMALL
GASTEIGER

@<TRIPOS>ATOM
      1 C          58.4888   94.4032   -0.3407 C.ar    1  UNL1        0.0515
      2 C          58.2618   95.8370   -0.7181 C.ar    1  UNL1        0.0160
      3 C          57.0872   96.2107   -1.5729 C.ar    1  UNL1        0.0170
      4 C          56.1395   95.1505   -2.0502 C.ar    1  UNL1        0.0650
      5 C          56.3665   93.7166   -1.6728 C.ar    1  UNL1        0.0726
      6 CL         55.4189   92.6564   -2.1502 Cl      1  UNL1       -0.0809
      7 C          57.5412   93.3430   -0.8181 C.ar    1  UNL1        0.0273
      8 N          54.9649   95.5242   -2.9050 N.am    1  UNL1       -0.2500
      9 C          53.6049   95.9190   -2.4107 C.3     1  UNL1        0.1260
     10 C          52.7435   96.2074   -3.6043 C.ar    1  UNL1        0.0130
     11 C          51.3124   96.6393   -3.7285 C.ar    1  UNL1        0.0554
     12 CL         50.4847   96.8558   -2.4964 Cl      1  UNL1       -0.0825
     13 C          50.7090   96.8546   -5.0848 C.ar    1  UNL1        0.0111
     14 C          51.5367   96.6381   -6.3169 C.ar    1  UNL1        0.0010
     15 C          52.9678   96.2062   -6.1927 C.ar    1  UNL1        0.0043
     16 C          53.5712   95.9909   -4.8364 C.ar    1  UNL1        0.0524
     17 C          54.9441   95.5686   -4.4042 C.2     1  UNL1        0.2528
     18 O          56.0942   95.2472   -5.3119 O.2     1  UNL1       -0.2696
     19 C          60.8956   93.4511   -0.1160 C.2     1  UNL1        0.2839
     20 O          60.9533   93.2463   -1.6009 O.2     1  UNL1       -0.2665
     21 N          59.6634   94.0295    0.5141 N.am    1  UNL1       -0.2778
     22 H          59.6256   94.1639    1.4886 H       1  UNL1        0.1553
     23 C          63.9391   94.5843   -0.4367 C.3     1  UNL1        0.0345
     24 C          63.4692   93.5983    0.5913 C.ar    1  UNL1        0.0204
     25 C          64.3157   92.9601    1.6525 C.ar    1  UNL1        0.0396
     26 C          63.4400   92.0447    2.4558 C.ar    1  UNL1        0.1795
     27 O          62.0523   92.1173    1.8911 O.2     1  UNL1       -0.4461
     28 C          62.0703   93.0774    0.7388 C.ar    1  UNL1        0.1948
@<TRIPOS>BOND
     1    23    24    1
     2    24    25   ar
     3    25    26   ar
     4    26    27   ar
     5    27    28   ar
     6    28    19    1
     7    19    20    2
     8    19    21   am
     9    21     1    1
    10     1     2   ar
    11     2     3   ar
    12     3     4   ar
    13     4     8    1
    14     8     9    1
    15     9    10    1
    16    10    11   ar
    17    11    12    1
    18    11    13   ar
    19    13    14   ar
    20    14    15   ar
    21    15    16   ar
    22    16    17    1
    23    17    18    2
    24     4     5   ar
    25     5     6    1
    26     5     7   ar
    27    28    24   ar
    28     7     1   ar
    29    17     8   am
    30    16    10   ar
    31    21    22    1
@<TRIPOS>MOLECULE
*****
 28 31 0 0 0
SMALL
GASTEIGER

@<TRIPOS>ATOM
      1 C          62.7085   86.5745   12.7744 C.ar    1  UNL1        0.0515
      2 C          62.4056   87.3271   11.5128 C.ar    1  UNL1        0.0160
      3 C          62.9512   88.7104   11.3153 C.ar    1  UNL1        0.0170
      4 C          63.7997   89.3409   12.3794 C.ar    1  UNL1        0.0650
      5 C          64.1025   88.5883   13.6411 C.ar    1  UNL1        0.0726
      6 CL         64.9510   89.2188   14.7053 Cl      1  UNL1       -0.0809
      7 C          63.5569   87.2050   13.8385 C.ar    1  UNL1        0.0273
      8 N          64.3453   90.7242   12.1820 N.am    1  UNL1       -0.2500
      9 C          65.1669   91.4973   13.1705 C.3     1  UNL1        0.1260
     10 C          65.4945   92.8281   12.5608 C.ar    1  UNL1        0.0130
     11 C          66.2766   94.0013   13.0724 C.ar    1  UNL1        0.0554
     12 CL         66.8958   93.9520   14.4378 Cl      1  UNL1       -0.0825
     13 C          66.4394   95.2239   12.2188 C.ar    1  UNL1        0.0111
     14 C          65.8202   95.2732   10.8534 C.ar    1  UNL1        0.0010
     15 C          65.0381   94.1000   10.3418 C.ar    1  UNL1        0.0043
     16 C          64.8752   92.8774   11.1954 C.ar    1  UNL1        0.0524
     17 C          64.1650   91.5771   10.9614 C.2     1  UNL1        0.2528
     18 O          63.4075   91.1966    9.7238 O.2     1  UNL1       -0.2696
     19 C          63.0995   84.0263   13.0970 C.2     1  UNL1        0.2839
     20 O          64.5818   84.2447   13.0248 O.2     1  UNL1       -0.2665
     21 N          62.1629   85.1912   12.9718 N.am    1  UNL1       -0.2778
     22 H          61.1900   85.0479   13.0193 H       1  UNL1        0.1553
     23 C          63.3885   81.5343   11.0100 C.3     1  UNL1        0.0345
     24 C          62.6868   81.4976   12.3351 C.ar    1  UNL1        0.0204
     25 C          61.9946   80.3091   12.9338 C.ar    1  UNL1        0.0396
     26 C          61.4340   80.7199   14.2630 C.ar    1  UNL1        0.1795
     27 O          61.7797   82.1624   14.4860 O.2     1  UNL1       -0.4461
     28 C          62.5539   82.6431   13.2945 C.ar    1  UNL1        0.1948
@<TRIPOS>BOND
     1    23    24    1
     2    24    25   ar
     3    25    26   ar
     4    26    27   ar
     5    27    28   ar
     6    28    19    1
     7    19    20    2
     8    19    21   am
     9    21     1    1
    10     1     2   ar
    11     2     3   ar
    12     3     4   ar
    13     4     8    1
    14     8     9    1
    15     9    10    1
    16    10    11   ar
    17    11    12    1
    18    11    13   ar
    19    13    14   ar
    20    14    15   ar
    21    15    16   ar
    22    16    17    1
    23    17    18    2
    24     4     5   ar
    25     5     6    1
    26     5     7   ar
    27    28    24   ar
    28     7     1   ar
    29    17     8   am
    30    16    10   ar
    31    21    22    1
@<TRIPOS>MOLECULE
*****
 28 31 0 0 0
SMALL
GASTEIGER

@<TRIPOS>ATOM
      1 C          58.8662   94.9667   -0.7926 C.ar    1  UNL1        0.0515
      2 C          58.5798   96.3272   -1.3554 C.ar    1  UNL1        0.0160
      3 C          57.2971   96.5798   -2.0909 C.ar    1  UNL1        0.0170
      4 C          56.3008   95.4719   -2.2634 C.ar    1  UNL1        0.0650
      5 C          56.5872   94.1114   -1.7006 C.ar    1  UNL1        0.0726
      6 CL         55.5908   93.0034   -1.8731 Cl      1  UNL1       -0.0809
      7 C          57.8699   93.8587   -0.9651 C.ar    1  UNL1        0.0273
      8 N          55.0180   95.7245   -2.9988 N.am    1  UNL1       -0.2500
      9 C          54.8548   95.7951   -4.4882 C.3     1  UNL1        0.1260
     10 C          53.4092   96.0651   -4.7839 C.ar    1  UNL1        0.0130
     11 C          52.6635   96.2358   -6.0741 C.ar    1  UNL1        0.0554
     12 CL         53.3938   96.1395   -7.3809 Cl      1  UNL1       -0.0825
     13 C          51.1876   96.5027   -6.0577 C.ar    1  UNL1        0.0111
     14 C          50.4574   96.5989   -4.7509 C.ar    1  UNL1        0.0010
     15 C          51.2031   96.4283   -3.4607 C.ar    1  UNL1        0.0043
     16 C          52.6790   96.1614   -3.4772 C.ar    1  UNL1        0.0524
     17 C          53.6733   95.9509   -2.3740 C.2     1  UNL1        0.2528
     18 O          53.3752   95.9644   -0.9040 O.2     1  UNL1       -0.2696
     19 C          61.2464   93.9285   -0.7116 C.2     1  UNL1        0.2839
     20 O          61.0613   93.3956   -2.1015 O.2     1  UNL1       -0.2665
     21 N          60.1489   94.7140   -0.0572 N.am    1  UNL1       -0.2778
     22 H          60.2704   95.0638    0.8550 H       1  UNL1        0.1553
     23 C          61.5223   92.6786    2.2903 C.3     1  UNL1        0.0345
     24 C          62.6559   93.1013    1.4037 C.ar    1  UNL1        0.0204
     25 C          64.1154   93.0238    1.7412 C.ar    1  UNL1        0.0396
     26 C          64.8907   93.5505    0.5700 C.ar    1  UNL1        0.1795
     27 O          63.9103   93.9534   -0.4914 O.2     1  UNL1       -0.4461
     28 C          62.5291   93.6759    0.0239 C.ar    1  UNL1        0.1948
@<TRIPOS>BOND
     1    23    24    1
     2    24    25   ar
     3    25    26   ar
     4    26    27   ar
     5    27    28   ar
     6    28    19    1
     7    19    20    2
     8    19    21   am
     9    21     1    1
    10     1     2   ar
    11     2     3   ar
    12     3     4   ar
    13     4     8    1
    14     8     9    1
    15     9    10    1
    16    10    11   ar
    17    11    12    1
    18    11    13   ar
    19    13    14   ar
    20    14    15   ar
    21    15    16   ar
    22    16    17    1
    23    17    18    2
    24     4     5   ar
    25     5     6    1
    26     5     7   ar
    27    28    24   ar
    28     7     1   ar
    29    17     8   am
    30    16    10   ar
    31    21    22    1
