@<TRIPOS>MOLECULE
*****
 30 32 0 0 0
SMALL
GASTEIGER

@<TRIPOS>ATOM
      1 N          65.4496   90.8204   13.0610 N.am    1  UNL1       -0.2917
      2 C          64.2036   90.2325   13.6540 C.2     1  UNL1        0.2463
      3 O          63.2035   91.1218   14.3315 O.2     1  UNL1       -0.2701
      4 H          66.1060   90.2367   12.6163 H       1  UNL1        0.1502
      5 C          63.9575   88.7552   13.5694 C.ar    1  UNL1        0.0556
      6 C          63.2359   88.1816   12.3862 C.ar    1  UNL1        0.0047
      7 C          62.9899   86.7043   12.3017 C.ar    1  UNL1        0.0024
      8 C          63.4655   85.8007   13.4004 C.ar    1  UNL1        0.0275
      9 C          64.1871   86.3743   14.5837 C.ar    1  UNL1        0.1402
     10 F          64.6627   85.4707   15.6825 F       1  UNL1       -0.2042
     11 C          64.4331   87.8516   14.6682 C.ar    1  UNL1        0.0341
     12 C          63.2194   84.3234   13.3159 C.ar    1  UNL1        0.0022
     13 C          62.4507   83.6279   14.3999 C.ar    1  UNL1        0.0001
     14 C          62.2046   82.1505   14.3154 C.ar    1  UNL1        0.0000
     15 C          62.7273   81.3688   13.1467 C.ar    1  UNL1        0.0000
     16 C          63.4961   82.0645   12.0626 C.ar    1  UNL1        0.0000
     17 C          63.7421   83.5417   12.1472 C.ar    1  UNL1        0.0001
     18 C          65.6957   92.2978   13.1456 C.3     1  UNL1        0.1945
     19 C          66.2288   92.8980   14.4127 C.2     1  UNL1        0.3369
     20 O          65.4101   92.8482   15.6686 O.2     1  UNL1       -0.2482
     21 O          67.5806   93.5479   14.4239 O.3     1  UNL1       -0.4511
     22 C          68.5957   92.0407   16.2807 C.3     1  UNL1        0.0473
     23 C          68.4852   93.3768   15.6081 C.3     1  UNL1        0.1691
     24 C          69.2794   94.5419   16.1197 C.3     1  UNL1        0.0473
     25 C          65.4086   93.1748   11.9631 C.3     1  UNL1        0.1386
     26 N          66.4854   93.4525   10.9564 N.ar    1  UNL1       -0.3055
     27 C          67.3671   92.4296   10.3036 C.ar    1  UNL1        0.0981
     28 C          68.2962   93.1469    9.3695 C.ar    1  UNL1        0.1193
     29 N          67.9885   94.6131    9.4451 N.ar    1  UNL1       -0.2223
     30 C          66.8694   94.8020   10.4258 C.ar    1  UNL1        0.1787
@<TRIPOS>BOND
     1    22    23    1
     2    23    24    1
     3    23    21    1
     4    21    19    1
     5    19    20    2
     6    19    18    1
     7    18    25    1
     8    25    26    1
     9    26    27   ar
    10    27    28   ar
    11    28    29   ar
    12    29    30   ar
    13    18     1    1
    14     1     2   am
    15     2     3    2
    16     2     5    1
    17     5     6   ar
    18     6     7   ar
    19     7     8   ar
    20     8    12    1
    21    12    13   ar
    22    13    14   ar
    23    14    15   ar
    24    15    16   ar
    25    16    17   ar
    26     8     9   ar
    27     9    10    1
    28     9    11   ar
    29    30    26   ar
    30    11     5   ar
    31    17    12   ar
    32     1     4    1
@<TRIPOS>MOLECULE
*****
 30 32 0 0 0
SMALL
GASTEIGER

@<TRIPOS>ATOM
      1 N          65.4451   90.7891   13.0745 N.am    1  UNL1       -0.2917
      2 C          64.2282   90.1884   13.7134 C.2     1  UNL1        0.2463
      3 O          63.2420   91.0682   14.4230 O.2     1  UNL1       -0.2701
      4 H          66.0923   90.2116   12.6088 H       1  UNL1        0.1502
      5 C          63.9974   88.7079   13.6428 C.ar    1  UNL1        0.0556
      6 C          64.4912   87.8184   14.7450 C.ar    1  UNL1        0.0047
      7 C          64.2604   86.3380   14.6743 C.ar    1  UNL1        0.0024
      8 C          63.5357   85.7471   13.5015 C.ar    1  UNL1        0.0275
      9 C          63.0418   86.6366   12.3993 C.ar    1  UNL1        0.1402
     10 F          62.3172   86.0456   11.2264 F       1  UNL1       -0.2042
     11 C          63.2727   88.1170   12.4699 C.ar    1  UNL1        0.0341
     12 C          63.3048   84.2666   13.4308 C.ar    1  UNL1        0.0022
     13 C          63.9788   83.4524   12.3665 C.ar    1  UNL1        0.0001
     14 C          63.7480   81.9719   12.2959 C.ar    1  UNL1        0.0000
     15 C          62.8432   81.3057   13.2896 C.ar    1  UNL1        0.0000
     16 C          62.1692   82.1199   14.3540 C.ar    1  UNL1        0.0000
     17 C          62.4001   83.6004   14.4246 C.ar    1  UNL1        0.0001
     18 C          65.6759   92.2696   13.1452 C.3     1  UNL1        0.1945
     19 C          66.2385   92.8822   14.3934 C.2     1  UNL1        0.3369
     20 O          65.4194   92.9107   15.6498 O.2     1  UNL1       -0.2482
     21 O          67.6201   93.4662   14.3854 O.3     1  UNL1       -0.4511
     22 C          68.6152   92.0299   16.3081 C.3     1  UNL1        0.0473
     23 C          68.4920   93.3465   15.6001 C.3     1  UNL1        0.1691
     24 C          69.2408   94.5434   16.1067 C.3     1  UNL1        0.0473
     25 C          65.3442   93.1374   11.9675 C.3     1  UNL1        0.1386
     26 N          66.4069   93.4812   10.9664 N.ar    1  UNL1       -0.3055
     27 C          66.6043   94.8174   10.3139 C.ar    1  UNL1        0.0981
     28 C          67.7782   94.7113    9.3861 C.ar    1  UNL1        0.1193
     29 N          68.3062   93.3095    9.4652 N.ar    1  UNL1       -0.2223
     30 C          67.4587   92.5493   10.4418 C.ar    1  UNL1        0.1787
@<TRIPOS>BOND
     1    22    23    1
     2    23    24    1
     3    23    21    1
     4    21    19    1
     5    19    20    2
     6    19    18    1
     7    18    25    1
     8    25    26    1
     9    26    27   ar
    10    27    28   ar
    11    28    29   ar
    12    29    30   ar
    13    18     1    1
    14     1     2   am
    15     2     3    2
    16     2     5    1
    17     5     6   ar
    18     6     7   ar
    19     7     8   ar
    20     8    12    1
    21    12    13   ar
    22    13    14   ar
    23    14    15   ar
    24    15    16   ar
    25    16    17   ar
    26     8     9   ar
    27     9    10    1
    28     9    11   ar
    29    30    26   ar
    30    11     5   ar
    31    17    12   ar
    32     1     4    1
@<TRIPOS>MOLECULE
*****
 30 32 0 0 0
SMALL
GASTEIGER

@<TRIPOS>ATOM
      1 N          64.8787   89.9211   13.0548 N.am    1  UNL1       -0.2917
      2 C          63.5122   89.3031   13.0788 C.2     1  UNL1        0.2463
      3 O          62.2959   90.1758   13.1736 O.2     1  UNL1       -0.2701
      4 H          65.6770   89.3483   12.9926 H       1  UNL1        0.1502
      5 C          63.3619   87.8123   13.0079 C.ar    1  UNL1        0.0556
      6 C          64.0137   86.9428   14.0418 C.ar    1  UNL1        0.0047
      7 C          63.8634   85.4520   13.9708 C.ar    1  UNL1        0.0024
      8 C          63.0613   84.8308   12.8660 C.ar    1  UNL1        0.0275
      9 C          62.4095   85.7004   11.8320 C.ar    1  UNL1        0.1402
     10 F          61.6074   85.0792   10.7271 F       1  UNL1       -0.2042
     11 C          62.5598   87.1911   11.9030 C.ar    1  UNL1        0.0341
     12 C          62.9110   83.3400   12.7950 C.ar    1  UNL1        0.0022
     13 C          62.4050   82.5798   13.9850 C.ar    1  UNL1        0.0001
     14 C          62.2547   81.0890   13.9141 C.ar    1  UNL1        0.0000
     15 C          62.6104   80.3585   12.6532 C.ar    1  UNL1        0.0000
     16 C          63.1164   81.1188   11.4632 C.ar    1  UNL1        0.0000
     17 C          63.2666   82.6095   11.5341 C.ar    1  UNL1        0.0001
     18 C          65.0290   91.4120   13.1257 C.3     1  UNL1        0.1945
     19 C          64.8595   92.2425   11.8882 C.2     1  UNL1        0.3369
     20 O          63.9326   91.7870   10.8003 O.2     1  UNL1       -0.2482
     21 O          65.6168   93.5286   11.7386 O.3     1  UNL1       -0.4511
     22 C          66.7486   95.0044    9.9245 C.3     1  UNL1        0.0473
     23 C          66.6138   93.6872   10.6291 C.3     1  UNL1        0.1691
     24 C          67.4760   92.5284   10.2243 C.3     1  UNL1        0.0473
     25 C          65.3488   92.0721   14.4341 C.3     1  UNL1        0.1386
     26 N          66.7715   92.3939   14.7838 N.ar    1  UNL1       -0.3055
     27 C          67.2428   93.0421   16.0518 C.ar    1  UNL1        0.0981
     28 C          68.7353   93.1727   15.9786 C.ar    1  UNL1        0.1193
     29 N          69.1864   92.6053   14.6653 N.ar    1  UNL1       -0.2223
     30 C          67.9727   92.1239   13.9269 C.ar    1  UNL1        0.1787
@<TRIPOS>BOND
     1    22    23    1
     2    23    24    1
     3    23    21    1
     4    21    19    1
     5    19    20    2
     6    19    18    1
     7    18    25    1
     8    25    26    1
     9    26    27   ar
    10    27    28   ar
    11    28    29   ar
    12    29    30   ar
    13    18     1    1
    14     1     2   am
    15     2     3    2
    16     2     5    1
    17     5     6   ar
    18     6     7   ar
    19     7     8   ar
    20     8    12    1
    21    12    13   ar
    22    13    14   ar
    23    14    15   ar
    24    15    16   ar
    25    16    17   ar
    26     8     9   ar
    27     9    10    1
    28     9    11   ar
    29    30    26   ar
    30    11     5   ar
    31    17    12   ar
    32     1     4    1
@<TRIPOS>MOLECULE
*****
 30 32 0 0 0
SMALL
GASTEIGER

@<TRIPOS>ATOM
      1 N          65.1522   90.5482   12.8778 N.am    1  UNL1       -0.2917
      2 C          64.1145   89.8732   13.7248 C.2     1  UNL1        0.2463
      3 O          63.3311   90.6683   14.7269 O.2     1  UNL1       -0.2701
      4 H          65.6663   90.0263   12.2201 H       1  UNL1        0.1502
      5 C          63.8601   88.4030   13.5698 C.ar    1  UNL1        0.0556
      6 C          63.1241   87.8919   12.3669 C.ar    1  UNL1        0.0047
      7 C          62.8698   86.4218   12.2120 C.ar    1  UNL1        0.0024
      8 C          63.3514   85.4628   13.2599 C.ar    1  UNL1        0.0275
      9 C          64.0874   85.9738   14.4629 C.ar    1  UNL1        0.1402
     10 F          64.5691   85.0148   15.5108 F       1  UNL1       -0.2042
     11 C          64.3418   87.4439   14.6178 C.ar    1  UNL1        0.0341
     12 C          63.0970   83.9926   13.1049 C.ar    1  UNL1        0.0022
     13 C          63.4656   83.2983   11.8274 C.ar    1  UNL1        0.0001
     14 C          63.2112   81.8281   11.6724 C.ar    1  UNL1        0.0000
     15 C          62.5883   81.0523   12.7950 C.ar    1  UNL1        0.0000
     16 C          62.2197   81.7467   14.0725 C.ar    1  UNL1        0.0000
     17 C          62.4741   83.2168   14.2275 C.ar    1  UNL1        0.0001
     18 C          65.4065   92.0183   13.0328 C.3     1  UNL1        0.1945
     19 C          65.2948   92.9281   11.8454 C.2     1  UNL1        0.3369
     20 O          64.5569   92.4752   10.6204 O.2     1  UNL1       -0.2482
     21 O          65.9210   94.2906   11.8829 O.3     1  UNL1       -0.4511
     22 C          67.3081   94.5580    9.7025 C.3     1  UNL1        0.0473
     23 C          66.2027   95.0220   10.6040 C.3     1  UNL1        0.1691
     24 C          65.3790   96.2174   10.2266 C.3     1  UNL1        0.0473
     25 C          65.7726   92.5787   14.3751 C.3     1  UNL1        0.1386
     26 N          67.2133   92.8059   14.7254 N.ar    1  UNL1       -0.3055
     27 C          67.7228   93.6234   15.8753 C.ar    1  UNL1        0.0981
     28 C          69.2218   93.5782   15.8479 C.ar    1  UNL1        0.1193
     29 N          69.6388   92.7328   14.6810 N.ar    1  UNL1       -0.2223
     30 C          68.3975   92.2555   13.9873 C.ar    1  UNL1        0.1787
@<TRIPOS>BOND
     1    22    23    1
     2    23    24    1
     3    23    21    1
     4    21    19    1
     5    19    20    2
     6    19    18    1
     7    18    25    1
     8    25    26    1
     9    26    27   ar
    10    27    28   ar
    11    28    29   ar
    12    29    30   ar
    13    18     1    1
    14     1     2   am
    15     2     3    2
    16     2     5    1
    17     5     6   ar
    18     6     7   ar
    19     7     8   ar
    20     8    12    1
    21    12    13   ar
    22    13    14   ar
    23    14    15   ar
    24    15    16   ar
    25    16    17   ar
    26     8     9   ar
    27     9    10    1
    28     9    11   ar
    29    30    26   ar
    30    11     5   ar
    31    17    12   ar
    32     1     4    1
@<TRIPOS>MOLECULE
*****
 30 32 0 0 0
SMALL
GASTEIGER

@<TRIPOS>ATOM
      1 N          62.0510   88.9307    9.8122 N.am    1  UNL1       -0.2917
      2 C          61.8601   89.3416   11.2421 C.2     1  UNL1        0.2463
      3 O          60.5273   89.1553   11.9045 O.2     1  UNL1       -0.2701
      4 H          62.9258   89.0530    9.3775 H       1  UNL1        0.1502
      5 C          63.0021   89.9390   12.0097 C.ar    1  UNL1        0.0556
      6 C          63.5028   89.2667   13.2536 C.ar    1  UNL1        0.0047
      7 C          64.6448   89.8641   14.0211 C.ar    1  UNL1        0.0024
      8 C          65.2860   91.1337   13.5447 C.ar    1  UNL1        0.0275
      9 C          64.7852   91.8060   12.3008 C.ar    1  UNL1        0.1402
     10 F          65.4264   93.0756   11.8244 F       1  UNL1       -0.2042
     11 C          63.6433   91.2086   11.5333 C.ar    1  UNL1        0.0341
     12 C          66.4279   91.7311   14.3123 C.ar    1  UNL1        0.0022
     13 C          67.8083   91.7298   13.7253 C.ar    1  UNL1        0.0001
     14 C          68.9503   92.3272   14.4929 C.ar    1  UNL1        0.0000
     15 C          68.7118   92.9258   15.8474 C.ar    1  UNL1        0.0000
     16 C          67.3314   92.9270   16.4344 C.ar    1  UNL1        0.0000
     17 C          66.1895   92.3297   15.6668 C.ar    1  UNL1        0.0001
     18 C          60.9090   88.3333    9.0447 C.3     1  UNL1        0.1945
     19 C          59.8961   89.2261    8.3912 C.2     1  UNL1        0.3369
     20 O          59.3795   90.4322    9.1183 O.2     1  UNL1       -0.2482
     21 O          59.3998   88.9128    7.0108 O.3     1  UNL1       -0.4511
     22 C          57.8435   90.5319    5.7045 C.3     1  UNL1        0.0473
     23 C          59.2183   90.0160    6.0108 C.3     1  UNL1        0.1691
     24 C          60.4115   90.6032    5.3170 C.3     1  UNL1        0.0473
     25 C          60.7800   86.8433    8.9305 C.3     1  UNL1        0.1386
     26 N          61.7037   85.9492    9.7033 N.ar    1  UNL1       -0.3055
     27 C          61.6410   85.6793   11.1775 C.ar    1  UNL1        0.0981
     28 C          62.7509   84.7313   11.5229 C.ar    1  UNL1        0.1193
     29 N          63.4996   84.4152   10.2620 N.ar    1  UNL1       -0.2223
     30 C          62.8524   85.1679    9.1375 C.ar    1  UNL1        0.1787
@<TRIPOS>BOND
     1    22    23    1
     2    23    24    1
     3    23    21    1
     4    21    19    1
     5    19    20    2
     6    19    18    1
     7    18    25    1
     8    25    26    1
     9    26    27   ar
    10    27    28   ar
    11    28    29   ar
    12    29    30   ar
    13    18     1    1
    14     1     2   am
    15     2     3    2
    16     2     5    1
    17     5     6   ar
    18     6     7   ar
    19     7     8   ar
    20     8    12    1
    21    12    13   ar
    22    13    14   ar
    23    14    15   ar
    24    15    16   ar
    25    16    17   ar
    26     8     9   ar
    27     9    10    1
    28     9    11   ar
    29    30    26   ar
    30    11     5   ar
    31    17    12   ar
    32     1     4    1
@<TRIPOS>MOLECULE
*****
 30 32 0 0 0
SMALL
GASTEIGER

@<TRIPOS>ATOM
      1 N          62.9688   88.2235   11.3052 N.am    1  UNL1       -0.2917
      2 C          62.8914   89.4632   12.1461 C.2     1  UNL1        0.2463
      3 O          62.0411   89.4794   13.3817 O.2     1  UNL1       -0.2701
      4 H          63.5269   88.2128   10.4942 H       1  UNL1        0.1502
      5 C          63.6642   90.6867   11.7513 C.ar    1  UNL1        0.0556
      6 C          63.4819   91.2809   10.3862 C.ar    1  UNL1        0.0047
      7 C          64.2547   92.5044    9.9915 C.ar    1  UNL1        0.0024
      8 C          65.2098   93.1337   10.9619 C.ar    1  UNL1        0.0275
      9 C          65.3921   92.5395   12.3271 C.ar    1  UNL1        0.1402
     10 F          66.3471   93.1689   13.2975 F       1  UNL1       -0.2042
     11 C          64.6193   91.3161   12.7218 C.ar    1  UNL1        0.0341
     12 C          65.9826   94.3573   10.5672 C.ar    1  UNL1        0.0022
     13 C          66.9200   94.3072    9.3973 C.ar    1  UNL1        0.0001
     14 C          67.6928   95.5308    9.0025 C.ar    1  UNL1        0.0000
     15 C          67.5281   96.8043    9.7777 C.ar    1  UNL1        0.0000
     16 C          66.5906   96.8543   10.9476 C.ar    1  UNL1        0.0000
     17 C          65.8179   95.6308   11.3423 C.ar    1  UNL1        0.0001
     18 C          62.1960   86.9999   11.7000 C.3     1  UNL1        0.1945
     19 C          62.8359   85.9558   12.5662 C.2     1  UNL1        0.3369
     20 O          63.7853   86.3627   13.6540 O.2     1  UNL1       -0.2482
     21 O          62.5264   84.5049   12.3448 O.3     1  UNL1       -0.4511
     22 C          63.7573   83.7159   10.1972 C.3     1  UNL1        0.0473
     23 C          63.5339   83.6166   11.6771 C.3     1  UNL1        0.1691
     24 C          64.3179   82.6289   12.4893 C.3     1  UNL1        0.0473
     25 C          60.7834   86.8206   11.2285 C.3     1  UNL1        0.1386
     26 N          60.3452   87.4228    9.9265 N.ar    1  UNL1       -0.3055
     27 C          60.0036   86.6674    8.6764 C.ar    1  UNL1        0.0981
     28 C          59.6189   87.6639    7.6232 C.ar    1  UNL1        0.1193
     29 N          59.7227   89.0351    8.2226 N.ar    1  UNL1       -0.2223
     30 C          60.1716   88.8860    9.6460 C.ar    1  UNL1        0.1787
@<TRIPOS>BOND
     1    22    23    1
     2    23    24    1
     3    23    21    1
     4    21    19    1
     5    19    20    2
     6    19    18    1
     7    18    25    1
     8    25    26    1
     9    26    27   ar
    10    27    28   ar
    11    28    29   ar
    12    29    30   ar
    13    18     1    1
    14     1     2   am
    15     2     3    2
    16     2     5    1
    17     5     6   ar
    18     6     7   ar
    19     7     8   ar
    20     8    12    1
    21    12    13   ar
    22    13    14   ar
    23    14    15   ar
    24    15    16   ar
    25    16    17   ar
    26     8     9   ar
    27     9    10    1
    28     9    11   ar
    29    30    26   ar
    30    11     5   ar
    31    17    12   ar
    32     1     4    1
@<TRIPOS>MOLECULE
*****
 30 32 0 0 0
SMALL
GASTEIGER

@<TRIPOS>ATOM
      1 N          64.1507   89.1547   13.6964 N.am    1  UNL1       -0.2917
      2 C          62.8529   89.2607   12.9519 C.2     1  UNL1        0.2463
      3 O          61.8033   90.2302   13.4086 O.2     1  UNL1       -0.2701
      4 H          64.8396   88.5184   13.3966 H       1  UNL1        0.1502
      5 C          62.6045   88.3973   11.7507 C.ar    1  UNL1        0.0556
      6 C          62.3111   89.0277   10.4217 C.ar    1  UNL1        0.0047
      7 C          62.0627   88.1642    9.2205 C.ar    1  UNL1        0.0024
      8 C          62.1078   86.6704    9.3485 C.ar    1  UNL1        0.0275
      9 C          62.4013   86.0400   10.6775 C.ar    1  UNL1        0.1402
     10 F          62.4463   84.5461   10.8055 F       1  UNL1       -0.2042
     11 C          62.6496   86.9034   11.8787 C.ar    1  UNL1        0.0341
     12 C          61.8595   85.8069    8.1473 C.ar    1  UNL1        0.0022
     13 C          60.4749   85.6876    7.5827 C.ar    1  UNL1        0.0001
     14 C          60.2266   84.8241    6.3815 C.ar    1  UNL1        0.0000
     15 C          61.3628   84.0800    5.7449 C.ar    1  UNL1        0.0000
     16 C          62.7474   84.1994    6.3095 C.ar    1  UNL1        0.0000
     17 C          62.9957   85.0628    7.5107 C.ar    1  UNL1        0.0001
     18 C          64.3991   90.0181   14.8976 C.3     1  UNL1        0.1945
     19 C          63.4687   89.9542   16.0725 C.2     1  UNL1        0.3369
     20 O          63.4549   91.0659   17.0796 O.2     1  UNL1       -0.2482
     21 O          62.5521   88.7788   16.2402 O.3     1  UNL1       -0.4511
     22 C          62.7716   87.1077   18.2175 C.3     1  UNL1        0.0473
     23 C          63.0790   87.4908   16.8002 C.3     1  UNL1        0.1691
     24 C          63.9133   86.5859   15.9429 C.3     1  UNL1        0.0473
     25 C          65.5778   90.9454   14.9239 C.3     1  UNL1        0.1386
     26 N          65.9910   91.6687   13.6765 N.ar    1  UNL1       -0.3055
     27 C          65.0710   92.1773   12.6065 C.ar    1  UNL1        0.0981
     28 C          65.9081   92.8334   11.5487 C.ar    1  UNL1        0.1193
     29 N          67.3455   92.7302   11.9651 N.ar    1  UNL1       -0.2223
     30 C          67.3967   92.0104   13.2801 C.ar    1  UNL1        0.1787
@<TRIPOS>BOND
     1    22    23    1
     2    23    24    1
     3    23    21    1
     4    21    19    1
     5    19    20    2
     6    19    18    1
     7    18    25    1
     8    25    26    1
     9    26    27   ar
    10    27    28   ar
    11    28    29   ar
    12    29    30   ar
    13    18     1    1
    14     1     2   am
    15     2     3    2
    16     2     5    1
    17     5     6   ar
    18     6     7   ar
    19     7     8   ar
    20     8    12    1
    21    12    13   ar
    22    13    14   ar
    23    14    15   ar
    24    15    16   ar
    25    16    17   ar
    26     8     9   ar
    27     9    10    1
    28     9    11   ar
    29    30    26   ar
    30    11     5   ar
    31    17    12   ar
    32     1     4    1
@<TRIPOS>MOLECULE
*****
 30 32 0 0 0
SMALL
GASTEIGER

@<TRIPOS>ATOM
      1 N          62.7899   87.6838   11.4610 N.am    1  UNL1       -0.2917
      2 C          62.4714   89.0220   12.0590 C.2     1  UNL1        0.2463
      3 O          61.0729   89.5601   11.9912 O.2     1  UNL1       -0.2701
      4 H          63.7078   87.3306   11.5055 H       1  UNL1        0.1502
      5 C          63.5514   89.8222   12.7249 C.ar    1  UNL1        0.0556
      6 C          64.1892   89.3184   13.9856 C.ar    1  UNL1        0.0047
      7 C          65.2692   90.1186   14.6513 C.ar    1  UNL1        0.0024
      8 C          65.7114   91.4226   14.0564 C.ar    1  UNL1        0.0275
      9 C          65.0737   91.9264   12.7957 C.ar    1  UNL1        0.1402
     10 F          65.5159   93.2305   12.2008 F       1  UNL1       -0.2042
     11 C          63.9937   91.1262   12.1299 C.ar    1  UNL1        0.0341
     12 C          66.7914   92.2228   14.7222 C.ar    1  UNL1        0.0022
     13 C          66.8377   93.7118   14.5473 C.ar    1  UNL1        0.0001
     14 C          67.9178   94.5120   15.2131 C.ar    1  UNL1        0.0000
     15 C          68.9515   93.8231   16.0539 C.ar    1  UNL1        0.0000
     16 C          68.9051   92.3340   16.2288 C.ar    1  UNL1        0.0000
     17 C          67.8251   91.5339   15.5630 C.ar    1  UNL1        0.0001
     18 C          61.7099   86.8836   10.7952 C.3     1  UNL1        0.1945
     19 C          62.0071   85.5076   10.2772 C.2     1  UNL1        0.3369
     20 O          62.1660   85.2792    8.8032 O.2     1  UNL1       -0.2482
     21 O          62.1453   84.3600   11.2331 O.3     1  UNL1       -0.4511
     22 C          64.1334   83.9573   12.8565 C.3     1  UNL1        0.0473
     23 C          63.4977   83.7735   11.5103 C.3     1  UNL1        0.1691
     24 C          64.2146   83.0031   10.4414 C.3     1  UNL1        0.0473
     25 C          60.3327   87.4594   10.6474 C.3     1  UNL1        0.1386
     26 N          59.8151   87.8260    9.2881 N.ar    1  UNL1       -0.3055
     27 C          60.0639   89.1187    8.5691 C.ar    1  UNL1        0.0981
     28 C          59.3603   89.0560    7.2458 C.ar    1  UNL1        0.1193
     29 N          58.6767   87.7244    7.1471 N.ar    1  UNL1       -0.2223
     30 C          58.9578   86.9643    8.4093 C.ar    1  UNL1        0.1787
@<TRIPOS>BOND
     1    22    23    1
     2    23    24    1
     3    23    21    1
     4    21    19    1
     5    19    20    2
     6    19    18    1
     7    18    25    1
     8    25    26    1
     9    26    27   ar
    10    27    28   ar
    11    28    29   ar
    12    29    30   ar
    13    18     1    1
    14     1     2   am
    15     2     3    2
    16     2     5    1
    17     5     6   ar
    18     6     7   ar
    19     7     8   ar
    20     8    12    1
    21    12    13   ar
    22    13    14   ar
    23    14    15   ar
    24    15    16   ar
    25    16    17   ar
    26     8     9   ar
    27     9    10    1
    28     9    11   ar
    29    30    26   ar
    30    11     5   ar
    31    17    12   ar
    32     1     4    1
@<TRIPOS>MOLECULE
*****
 30 32 0 0 0
SMALL
GASTEIGER

@<TRIPOS>ATOM
      1 N          62.7555   88.2085   11.2638 N.am    1  UNL1       -0.2917
      2 C          62.4552   89.2994   12.2485 C.2     1  UNL1        0.2463
      3 O          61.0328   89.6295   12.5914 O.2     1  UNL1       -0.2701
      4 H          63.6892   87.9918   11.0387 H       1  UNL1        0.1502
      5 C          63.5774   90.0602   12.8903 C.ar    1  UNL1        0.0556
      6 C          64.1337   89.6072   14.2076 C.ar    1  UNL1        0.0047
      7 C          65.2558   90.3680   14.8494 C.ar    1  UNL1        0.0024
      8 C          65.8217   91.5819   14.1739 C.ar    1  UNL1        0.0275
      9 C          65.2654   92.0350   12.8566 C.ar    1  UNL1        0.1402
     10 F          65.8312   93.2489   12.1811 F       1  UNL1       -0.2042
     11 C          64.1433   91.2741   12.2148 C.ar    1  UNL1        0.0341
     12 C          66.9438   92.3427   14.8157 C.ar    1  UNL1        0.0022
     13 C          68.0319   91.6062   15.5394 C.ar    1  UNL1        0.0001
     14 C          69.1541   92.3671   16.1812 C.ar    1  UNL1        0.0000
     15 C          69.1881   93.8644   16.0994 C.ar    1  UNL1        0.0000
     16 C          68.1000   94.6010   15.3757 C.ar    1  UNL1        0.0000
     17 C          66.9779   93.8401   14.7339 C.ar    1  UNL1        0.0001
     18 C          61.6333   87.4477   10.6219 C.3     1  UNL1        0.1945
     19 C          60.8687   88.0566    9.4841 C.2     1  UNL1        0.3369
     20 O          59.9340   89.2023    9.7367 O.2     1  UNL1       -0.2482
     21 O          61.0388   87.5199    8.0938 O.3     1  UNL1       -0.4511
     22 C          58.6754   86.5083    7.7184 C.3     1  UNL1        0.0473
     23 C          60.1675   86.3985    7.6110 C.3     1  UNL1        0.1691
     24 C          60.7883   85.1671    7.0208 C.3     1  UNL1        0.0473
     25 C          61.2758   86.0779   11.1178 C.3     1  UNL1        0.1386
     26 N          62.3308   85.0160   11.2137 N.ar    1  UNL1       -0.3055
     27 C          62.7795   84.3297   12.4698 C.ar    1  UNL1        0.0981
     28 C          63.8484   83.3435   12.1028 C.ar    1  UNL1        0.1193
     29 N          64.0603   83.4202   10.6197 N.ar    1  UNL1       -0.2223
     30 C          63.1224   84.4539   10.0703 C.ar    1  UNL1        0.1787
@<TRIPOS>BOND
     1    22    23    1
     2    23    24    1
     3    23    21    1
     4    21    19    1
     5    19    20    2
     6    19    18    1
     7    18    25    1
     8    25    26    1
     9    26    27   ar
    10    27    28   ar
    11    28    29   ar
    12    29    30   ar
    13    18     1    1
    14     1     2   am
    15     2     3    2
    16     2     5    1
    17     5     6   ar
    18     6     7   ar
    19     7     8   ar
    20     8    12    1
    21    12    13   ar
    22    13    14   ar
    23    14    15   ar
    24    15    16   ar
    25    16    17   ar
    26     8     9   ar
    27     9    10    1
    28     9    11   ar
    29    30    26   ar
    30    11     5   ar
    31    17    12   ar
    32     1     4    1
