@<TRIPOS>MOLECULE
*****
 23 26 0 0 0
SMALL
GASTEIGER

@<TRIPOS>ATOM
      1 O          64.4746   89.5135   14.2882 O.2     1  UNL1       -0.2520
      2 C          64.2242   90.1602   12.9581 C.2     1  UNL1        0.3109
      3 N          63.3328   89.4907   11.9546 N.am    1  UNL1       -0.2638
      4 C          62.6918   88.1744   12.2810 C.3     1  UNL1        0.0953
      5 C          61.8004   87.5049   11.2774 C.3     1  UNL1        0.0257
      6 C          61.5500   88.1516    9.9474 C.3     1  UNL1        0.0253
      7 C          62.1910   89.4679    9.6209 C.3     1  UNL1        0.0257
      8 C          63.0824   90.1374   10.6245 C.3     1  UNL1        0.0953
      9 N          64.8651   91.4765   12.6317 N.am    1  UNL1       -0.2434
     10 C          64.6148   92.1232   11.3016 C.3     1  UNL1        0.1001
     11 C          65.2557   93.4395   10.9752 C.3     1  UNL1        0.0267
     12 C          66.1471   94.1090   11.9787 C.3     1  UNL1        0.0294
     13 C          66.3975   93.4623   13.3088 C.ar    1  UNL1       -0.0084
     14 C          67.2889   94.1318   14.3124 C.ar    1  UNL1       -0.0030
     15 C          67.5392   93.4851   15.6424 C.ar    1  UNL1       -0.0002
     16 C          66.8983   92.1688   15.9689 C.ar    1  UNL1        0.0013
     17 C          66.0069   91.4993   14.9653 C.ar    1  UNL1        0.0146
     18 C          65.7565   92.1460   13.6353 C.ar    1  UNL1        0.0513
     19 C          60.6587   87.4821    8.9438 C.2     1  UNL1        0.0025
     20 C          60.8826   86.1333    8.3270 C.2     1  UNL1        0.1152
     21 N          59.7492   85.8614    7.3828 N.2     1  UNL1       -0.1514
     22 N          58.8248   87.0422    7.4161 N.2     1  UNL1       -0.1699
     23 C          59.3868   88.0439    8.3808 C.3     1  UNL1        0.1729
@<TRIPOS>BOND
     1     1     2    2
     2     2     3   am
     3     3     4    1
     4     4     5    1
     5     5     6    1
     6     6    19    1
     7    19    20    2
     8    20    21    1
     9    21    22    2
    10    22    23    1
    11     6     7    1
    12     7     8    1
    13     2     9   am
    14     9    10    1
    15    10    11    1
    16    11    12    1
    17    12    13    1
    18    13    14   ar
    19    14    15   ar
    20    15    16   ar
    21    16    17   ar
    22    17    18   ar
    23     8     3    1
    24    18     9    1
    25    23    19    1
    26    18    13   ar
@<TRIPOS>MOLECULE
*****
 23 26 0 0 0
SMALL
GASTEIGER

@<TRIPOS>ATOM
      1 O          62.7548   83.2684   15.6015 O.2     1  UNL1       -0.2520
      2 C          63.1374   84.1767   14.4707 C.2     1  UNL1        0.3109
      3 N          63.3877   85.6328   14.7301 N.am    1  UNL1       -0.2638
      4 C          63.2554   86.1805   16.1202 C.3     1  UNL1        0.0953
      5 C          63.5057   87.6367   16.3795 C.3     1  UNL1        0.0257
      6 C          63.8883   88.5449   15.2488 C.3     1  UNL1        0.0253
      7 C          64.0206   87.9971   13.8587 C.3     1  UNL1        0.0257
      8 C          63.7703   86.5411   13.5993 C.3     1  UNL1        0.0953
      9 N          63.2698   83.6290   13.0806 N.am    1  UNL1       -0.2434
     10 C          63.6524   84.5372   11.9499 C.3     1  UNL1        0.1001
     11 C          63.7847   83.9894   10.5597 C.3     1  UNL1        0.0267
     12 C          63.5344   82.5334   10.3004 C.3     1  UNL1        0.0294
     13 C          63.1518   81.6251   11.4312 C.ar    1  UNL1       -0.0084
     14 C          62.9015   80.1690   11.1718 C.ar    1  UNL1       -0.0030
     15 C          62.5189   79.2608   12.3026 C.ar    1  UNL1       -0.0002
     16 C          62.3866   79.8086   13.6927 C.ar    1  UNL1        0.0013
     17 C          62.6369   81.2646   13.9521 C.ar    1  UNL1        0.0146
     18 C          63.0195   82.1728   12.8213 C.ar    1  UNL1        0.0513
     19 C          64.1386   90.0009   15.5081 C.2     1  UNL1        0.0025
     20 C          65.0614   90.8895   14.7279 C.2     1  UNL1        0.1152
     21 N          65.0031   92.2618   15.3308 N.2     1  UNL1       -0.1514
     22 N          64.0443   92.2213   16.4837 N.2     1  UNL1       -0.1699
     23 C          63.5100   90.8240   16.5932 C.3     1  UNL1        0.1729
@<TRIPOS>BOND
     1     1     2    2
     2     2     3   am
     3     3     4    1
     4     4     5    1
     5     5     6    1
     6     6    19    1
     7    19    20    2
     8    20    21    1
     9    21    22    2
    10    22    23    1
    11     6     7    1
    12     7     8    1
    13     2     9   am
    14     9    10    1
    15    10    11    1
    16    11    12    1
    17    12    13    1
    18    13    14   ar
    19    14    15   ar
    20    15    16   ar
    21    16    17   ar
    22    17    18   ar
    23     8     3    1
    24    18     9    1
    25    23    19    1
    26    18    13   ar
@<TRIPOS>MOLECULE
*****
 23 26 0 0 0
SMALL
GASTEIGER

@<TRIPOS>ATOM
      1 O          61.6153   85.0570   10.5375 O.2     1  UNL1       -0.2520
      2 C          61.7395   86.5506   10.5999 C.2     1  UNL1        0.3109
      3 N          61.0715   87.4028    9.5619 N.am    1  UNL1       -0.2638
      4 C          60.2792   86.7614    8.4614 C.3     1  UNL1        0.0953
      5 C          59.6112   87.6137    7.4234 C.3     1  UNL1        0.0257
      6 C          59.7354   89.1072    7.4858 C.3     1  UNL1        0.0253
      7 C          60.5276   89.7485    8.5863 C.3     1  UNL1        0.0257
      8 C          61.1957   88.8964    9.6243 C.3     1  UNL1        0.0953
      9 N          62.5317   87.1920   11.7004 N.am    1  UNL1       -0.2434
     10 C          62.6559   88.6855   11.7628 C.3     1  UNL1        0.1001
     11 C          63.4482   89.3269   12.8633 C.3     1  UNL1        0.0267
     12 C          64.1162   88.4747   13.9013 C.3     1  UNL1        0.0294
     13 C          63.9920   86.9811   13.8389 C.ar    1  UNL1       -0.0084
     14 C          64.6601   86.1290   14.8769 C.ar    1  UNL1       -0.0030
     15 C          64.5359   84.6355   14.8144 C.ar    1  UNL1       -0.0002
     16 C          63.7436   83.9941   13.7140 C.ar    1  UNL1        0.0013
     17 C          63.0756   84.8463   12.6760 C.ar    1  UNL1        0.0146
     18 C          63.1998   86.3398   12.7384 C.ar    1  UNL1        0.0513
     19 C          59.0674   89.9593    6.4478 C.2     1  UNL1        0.0025
     20 C          59.7602   90.8438    5.4540 C.2     1  UNL1        0.1152
     21 N          58.7102   91.5077    4.6133 N.2     1  UNL1       -0.1514
     22 N          57.3684   91.0336    5.0876 N.2     1  UNL1       -0.1699
     23 C          57.5892   90.0767    6.2213 C.3     1  UNL1        0.1729
@<TRIPOS>BOND
     1     1     2    2
     2     2     3   am
     3     3     4    1
     4     4     5    1
     5     5     6    1
     6     6    19    1
     7    19    20    2
     8    20    21    1
     9    21    22    2
    10    22    23    1
    11     6     7    1
    12     7     8    1
    13     2     9   am
    14     9    10    1
    15    10    11    1
    16    11    12    1
    17    12    13    1
    18    13    14   ar
    19    14    15   ar
    20    15    16   ar
    21    16    17   ar
    22    17    18   ar
    23     8     3    1
    24    18     9    1
    25    23    19    1
    26    18    13   ar
@<TRIPOS>MOLECULE
*****
 23 26 0 0 0
SMALL
GASTEIGER

@<TRIPOS>ATOM
      1 O          61.9411   90.9782    9.6549 O.2     1  UNL1       -0.2520
      2 C          62.4744   90.0041   10.6634 C.2     1  UNL1        0.3109
      3 N          63.4312   90.4681   11.7212 N.am    1  UNL1       -0.2638
      4 C          63.8548   91.9062   11.7707 C.3     1  UNL1        0.0953
      5 C          64.8117   92.3702   12.8286 C.3     1  UNL1        0.0257
      6 C          65.3449   91.3962   13.8370 C.3     1  UNL1        0.0253
      7 C          64.9213   89.9581   13.7875 C.3     1  UNL1        0.0257
      8 C          63.9645   89.4940   12.7296 C.3     1  UNL1        0.0953
      9 N          62.0508   88.5660   10.6138 N.am    1  UNL1       -0.2434
     10 C          62.5840   87.5919   11.6222 C.3     1  UNL1        0.1001
     11 C          62.1604   86.1538   11.5727 C.3     1  UNL1        0.0267
     12 C          61.2036   85.6898   10.5148 C.3     1  UNL1        0.0294
     13 C          60.6703   86.6639    9.5064 C.ar    1  UNL1       -0.0084
     14 C          59.7135   86.1999    8.4486 C.ar    1  UNL1       -0.0030
     15 C          59.1803   87.1739    7.4402 C.ar    1  UNL1       -0.0002
     16 C          59.6039   88.6120    7.4897 C.ar    1  UNL1        0.0013
     17 C          60.5607   89.0760    8.5476 C.ar    1  UNL1        0.0146
     18 C          61.0939   88.1020    9.5559 C.ar    1  UNL1        0.0513
     19 C          66.3018   91.8602   14.8949 C.2     1  UNL1        0.0025
     20 C          65.9542   92.6888   16.0959 C.2     1  UNL1        0.1152
     21 N          67.2118   92.9178   16.8808 N.2     1  UNL1       -0.1514
     22 N          68.3367   92.2308   16.1647 N.2     1  UNL1       -0.1699
     23 C          67.7742   91.5771   14.9374 C.3     1  UNL1        0.1729
@<TRIPOS>BOND
     1     1     2    2
     2     2     3   am
     3     3     4    1
     4     4     5    1
     5     5     6    1
     6     6    19    1
     7    19    20    2
     8    20    21    1
     9    21    22    2
    10    22    23    1
    11     6     7    1
    12     7     8    1
    13     2     9   am
    14     9    10    1
    15    10    11    1
    16    11    12    1
    17    12    13    1
    18    13    14   ar
    19    14    15   ar
    20    15    16   ar
    21    16    17   ar
    22    17    18   ar
    23     8     3    1
    24    18     9    1
    25    23    19    1
    26    18    13   ar
@<TRIPOS>MOLECULE
*****
 23 26 0 0 0
SMALL
GASTEIGER

@<TRIPOS>ATOM
      1 O          45.8183   73.7104   20.3169 O.2     1  UNL1       -0.2520
      2 C          45.5031   74.2233   18.9429 C.2     1  UNL1        0.3109
      3 N          45.4765   73.2790   17.7778 N.am    1  UNL1       -0.2638
      4 C          45.7650   71.8219   17.9865 C.3     1  UNL1        0.0953
      5 C          45.7384   70.8776   16.8212 C.3     1  UNL1        0.0257
      6 C          45.4232   71.3905   15.4473 C.3     1  UNL1        0.0253
      7 C          45.1346   72.8476   15.2386 C.3     1  UNL1        0.0257
      8 C          45.1613   73.7919   16.4038 C.3     1  UNL1        0.0953
      9 N          45.2145   75.6804   18.7342 N.am    1  UNL1       -0.2434
     10 C          44.8994   76.1932   17.3603 C.3     1  UNL1        0.1001
     11 C          44.6108   77.6503   17.1516 C.3     1  UNL1        0.0267
     12 C          44.6375   78.5946   18.3168 C.3     1  UNL1        0.0294
     13 C          44.9526   78.0817   19.6907 C.ar    1  UNL1       -0.0084
     14 C          44.9793   79.0260   20.8559 C.ar    1  UNL1       -0.0030
     15 C          45.2944   78.5131   22.2298 C.ar    1  UNL1       -0.0002
     16 C          45.5830   77.0560   22.4385 C.ar    1  UNL1        0.0013
     17 C          45.5564   76.1118   21.2733 C.ar    1  UNL1        0.0146
     18 C          45.2412   76.6246   19.8994 C.ar    1  UNL1        0.0513
     19 C          45.3966   70.4463   14.2822 C.2     1  UNL1        0.0025
     20 C          46.4900   69.4965   13.8919 C.2     1  UNL1        0.1152
     21 N          46.0411   68.7492   12.6712 N.2     1  UNL1       -0.1514
     22 N          44.6701   69.2372   12.3071 N.2     1  UNL1       -0.1699
     23 C          44.2719   70.2860   13.3027 C.3     1  UNL1        0.1729
@<TRIPOS>BOND
     1     1     2    2
     2     2     3   am
     3     3     4    1
     4     4     5    1
     5     5     6    1
     6     6    19    1
     7    19    20    2
     8    20    21    1
     9    21    22    2
    10    22    23    1
    11     6     7    1
    12     7     8    1
    13     2     9   am
    14     9    10    1
    15    10    11    1
    16    11    12    1
    17    12    13    1
    18    13    14   ar
    19    14    15   ar
    20    15    16   ar
    21    16    17   ar
    22    17    18   ar
    23     8     3    1
    24    18     9    1
    25    23    19    1
    26    18    13   ar
@<TRIPOS>MOLECULE
*****
 23 26 0 0 0
SMALL
GASTEIGER

@<TRIPOS>ATOM
      1 O          64.9032   87.9330   14.9961 O.2     1  UNL1       -0.2520
      2 C          64.0683   87.4626   13.8421 C.2     1  UNL1        0.3109
      3 N          63.6195   86.0329   13.7746 N.am    1  UNL1       -0.2638
      4 C          64.0056   85.0736   14.8612 C.3     1  UNL1        0.0953
      5 C          63.5568   83.6438   14.7937 C.3     1  UNL1        0.0257
      6 C          62.7219   83.1735   13.6397 C.3     1  UNL1        0.0253
      7 C          62.3359   84.1328   12.5532 C.3     1  UNL1        0.0257
      8 C          62.7846   85.5625   12.6206 C.3     1  UNL1        0.0953
      9 N          63.6822   88.4219   12.7555 N.am    1  UNL1       -0.2434
     10 C          62.8474   87.9516   11.6015 C.3     1  UNL1        0.1001
     11 C          62.4613   88.9109   10.5149 C.3     1  UNL1        0.0267
     12 C          62.9101   90.3406   10.5823 C.3     1  UNL1        0.0294
     13 C          63.7450   90.8110   11.7364 C.ar    1  UNL1       -0.0084
     14 C          64.1938   92.2406   11.8038 C.ar    1  UNL1       -0.0030
     15 C          65.0286   92.7110   12.9578 C.ar    1  UNL1       -0.0002
     16 C          65.4147   91.7517   14.0444 C.ar    1  UNL1        0.0013
     17 C          64.9659   90.3220   13.9770 C.ar    1  UNL1        0.0146
     18 C          64.1311   89.8516   12.8230 C.ar    1  UNL1        0.0513
     19 C          62.2731   81.7438   13.5723 C.2     1  UNL1        0.0025
     20 C          62.9774   80.6317   12.8533 C.2     1  UNL1        0.1152
     21 N          62.1809   79.3758   13.0486 N.2     1  UNL1       -0.1514
     22 N          60.9842   79.7117   13.8884 N.2     1  UNL1       -0.1699
     23 C          61.0413   81.1753   14.2121 C.3     1  UNL1        0.1729
@<TRIPOS>BOND
     1     1     2    2
     2     2     3   am
     3     3     4    1
     4     4     5    1
     5     5     6    1
     6     6    19    1
     7    19    20    2
     8    20    21    1
     9    21    22    2
    10    22    23    1
    11     6     7    1
    12     7     8    1
    13     2     9   am
    14     9    10    1
    15    10    11    1
    16    11    12    1
    17    12    13    1
    18    13    14   ar
    19    14    15   ar
    20    15    16   ar
    21    16    17   ar
    22    17    18   ar
    23     8     3    1
    24    18     9    1
    25    23    19    1
    26    18    13   ar
@<TRIPOS>MOLECULE
*****
 23 26 0 0 0
SMALL
GASTEIGER

@<TRIPOS>ATOM
      1 O          64.5926   86.4461   14.8600 O.2     1  UNL1       -0.2520
      2 C          63.9079   86.2297   13.5430 C.2     1  UNL1        0.3109
      3 N          63.6653   84.8361   13.0439 N.am    1  UNL1       -0.2638
      4 C          64.1073   83.6590   13.8618 C.3     1  UNL1        0.0953
      5 C          63.8647   82.2654   13.3626 C.3     1  UNL1        0.0257
      6 C          63.1800   82.0490   12.0457 C.3     1  UNL1        0.0253
      7 C          62.7380   83.2261   11.2279 C.3     1  UNL1        0.0257
      8 C          62.9806   84.6197   11.7269 C.3     1  UNL1        0.0953
      9 N          63.4658   87.4068   12.7251 N.am    1  UNL1       -0.2434
     10 C          62.7811   87.1904   11.4082 C.3     1  UNL1        0.1001
     11 C          62.3391   88.3676   10.5904 C.3     1  UNL1        0.0267
     12 C          62.5817   89.7611   11.0894 C.3     1  UNL1        0.0294
     13 C          63.2664   89.9776   12.4064 C.ar    1  UNL1       -0.0084
     14 C          63.5090   91.3711   12.9055 C.ar    1  UNL1       -0.0030
     15 C          64.1937   91.5875   14.2224 C.ar    1  UNL1       -0.0002
     16 C          64.6357   90.4104   15.0403 C.ar    1  UNL1        0.0013
     17 C          64.3931   89.0168   14.5412 C.ar    1  UNL1        0.0146
     18 C          63.7084   88.8004   13.2243 C.ar    1  UNL1        0.0513
     19 C          62.9374   80.6554   11.5466 C.2     1  UNL1        0.0025
     20 C          62.9984   80.2081   10.1162 C.2     1  UNL1        0.1152
     21 N          62.6899   78.7408   10.0758 N.2     1  UNL1       -0.1514
     22 N          62.4383   78.2811   11.4814 N.2     1  UNL1       -0.1699
     23 C          62.5913   79.4645   12.3904 C.3     1  UNL1        0.1729
@<TRIPOS>BOND
     1     1     2    2
     2     2     3   am
     3     3     4    1
     4     4     5    1
     5     5     6    1
     6     6    19    1
     7    19    20    2
     8    20    21    1
     9    21    22    2
    10    22    23    1
    11     6     7    1
    12     7     8    1
    13     2     9   am
    14     9    10    1
    15    10    11    1
    16    11    12    1
    17    12    13    1
    18    13    14   ar
    19    14    15   ar
    20    15    16   ar
    21    16    17   ar
    22    17    18   ar
    23     8     3    1
    24    18     9    1
    25    23    19    1
    26    18    13   ar
@<TRIPOS>MOLECULE
*****
 23 26 0 0 0
SMALL
GASTEIGER

@<TRIPOS>ATOM
      1 O          62.9354   85.4381   10.9173 O.2     1  UNL1       -0.2520
      2 C          63.3194   85.4243   12.3673 C.2     1  UNL1        0.3109
      3 N          63.5642   86.7154   13.0906 N.am    1  UNL1       -0.2638
      4 C          63.4250   88.0202   12.3640 C.3     1  UNL1        0.0953
      5 C          63.6698   89.3113   13.0875 C.3     1  UNL1        0.0257
      6 C          64.0538   89.2975   14.5374 C.3     1  UNL1        0.0253
      7 C          64.1930   87.9926   15.2640 C.3     1  UNL1        0.0257
      8 C          63.9482   86.7016   14.5406 C.3     1  UNL1        0.0953
      9 N          63.4586   84.1194   13.0939 N.am    1  UNL1       -0.2434
     10 C          63.8426   84.1056   14.5438 C.3     1  UNL1        0.1001
     11 C          63.9818   82.8007   15.2704 C.3     1  UNL1        0.0267
     12 C          63.7371   81.5097   14.5471 C.3     1  UNL1        0.0294
     13 C          63.3530   81.5235   13.0971 C.ar    1  UNL1       -0.0084
     14 C          63.1083   80.2324   12.3738 C.ar    1  UNL1       -0.0030
     15 C          62.7243   80.2463   10.9238 C.ar    1  UNL1       -0.0002
     16 C          62.5851   81.5512   10.1972 C.ar    1  UNL1        0.0013
     17 C          62.8298   82.8422   10.9206 C.ar    1  UNL1        0.0146
     18 C          63.2138   82.8284   12.3705 C.ar    1  UNL1        0.0513
     19 C          64.2986   90.5885   15.2607 C.2     1  UNL1        0.0025
     20 C          65.3644   91.5927   14.9359 C.2     1  UNL1        0.1152
     21 N          65.2451   92.7269   15.9103 N.2     1  UNL1       -0.1514
     22 N          64.1055   92.4236   16.8373 N.2     1  UNL1       -0.1699
     23 C          63.5205   91.1021   16.4358 C.3     1  UNL1        0.1729
@<TRIPOS>BOND
     1     1     2    2
     2     2     3   am
     3     3     4    1
     4     4     5    1
     5     5     6    1
     6     6    19    1
     7    19    20    2
     8    20    21    1
     9    21    22    2
    10    22    23    1
    11     6     7    1
    12     7     8    1
    13     2     9   am
    14     9    10    1
    15    10    11    1
    16    11    12    1
    17    12    13    1
    18    13    14   ar
    19    14    15   ar
    20    15    16   ar
    21    16    17   ar
    22    17    18   ar
    23     8     3    1
    24    18     9    1
    25    23    19    1
    26    18    13   ar
@<TRIPOS>MOLECULE
*****
 23 26 0 0 0
SMALL
GASTEIGER

@<TRIPOS>ATOM
      1 O          59.2460   92.0043    0.0207 O.2     1  UNL1       -0.2520
      2 C          59.0665   93.4820   -0.1648 C.2     1  UNL1        0.3109
      3 N          57.8167   94.0114   -0.8033 N.am    1  UNL1       -0.2638
      4 C          56.7463   93.0632   -1.2563 C.3     1  UNL1        0.0953
      5 C          55.4965   93.5926   -1.8948 C.3     1  UNL1        0.0257
      6 C          55.3170   95.0702   -2.0802 C.3     1  UNL1        0.0253
      7 C          56.3874   96.0185   -1.6272 C.3     1  UNL1        0.0257
      8 C          57.6372   95.4891   -0.9887 C.3     1  UNL1        0.0953
      9 N          60.1369   94.4302    0.2882 N.am    1  UNL1       -0.2434
     10 C          59.9574   95.9078    0.1028 C.3     1  UNL1        0.1001
     11 C          61.0278   96.8560    0.5558 C.3     1  UNL1        0.0267
     12 C          62.2776   96.3266    1.1943 C.3     1  UNL1        0.0294
     13 C          62.4571   94.8489    1.3797 C.ar    1  UNL1       -0.0084
     14 C          63.7069   94.3195    2.0182 C.ar    1  UNL1       -0.0030
     15 C          63.8863   92.8419    2.2036 C.ar    1  UNL1       -0.0002
     16 C          62.8160   91.8937    1.7506 C.ar    1  UNL1        0.0013
     17 C          61.5662   92.4231    1.1122 C.ar    1  UNL1        0.0146
     18 C          61.3867   93.9007    0.9267 C.ar    1  UNL1        0.0513
     19 C          54.0672   95.5996   -2.7187 C.2     1  UNL1        0.0025
     20 C          53.9399   96.0975   -4.1279 C.2     1  UNL1        0.1152
     21 N          52.5193   96.5297   -4.3402 N.2     1  UNL1       -0.1514
     22 N          51.7686   96.2989   -3.0622 N.2     1  UNL1       -0.1699
     23 C          52.7253   95.7241   -2.0600 C.3     1  UNL1        0.1729
@<TRIPOS>BOND
     1     1     2    2
     2     2     3   am
     3     3     4    1
     4     4     5    1
     5     5     6    1
     6     6    19    1
     7    19    20    2
     8    20    21    1
     9    21    22    2
    10    22    23    1
    11     6     7    1
    12     7     8    1
    13     2     9   am
    14     9    10    1
    15    10    11    1
    16    11    12    1
    17    12    13    1
    18    13    14   ar
    19    14    15   ar
    20    15    16   ar
    21    16    17   ar
    22    17    18   ar
    23     8     3    1
    24    18     9    1
    25    23    19    1
    26    18    13   ar
