@<TRIPOS>MOLECULE
*****
 22 24 0 0 0
SMALL
GASTEIGER

@<TRIPOS>ATOM
      1 C          63.8411   87.3991   14.3175 C.ar    1  UNL1        0.0846
      2 C          63.7178   86.2494   13.3621 C.ar    1  UNL1        0.0398
      3 C          63.5281   84.8564   13.8853 C.ar    1  UNL1        0.1021
      4 N          63.4618   84.6133   15.3640 N.ar    1  UNL1       -0.2224
      5 C          63.5851   85.7631   16.3194 C.ar    1  UNL1        0.1989
      6 N          63.7748   87.1560   15.7962 N.ar    1  UNL1       -0.2240
      7 C          65.0818   91.1572   14.0215 C.ar    1  UNL1        0.0693
      8 C          64.4102   91.5780   12.7480 C.ar    1  UNL1        0.0217
      9 C          63.5489   90.6058   11.9976 C.ar    1  UNL1        0.0584
     10 CL         62.8772   91.0266   10.7241 Cl      1  UNL1       -0.0822
     11 C          63.3592   89.2129   12.5208 C.ar    1  UNL1        0.0129
     12 C          64.0308   88.7921   13.7943 C.ar    1  UNL1        0.0193
     13 C          64.8921   89.7643   14.5446 C.ar    1  UNL1        0.0118
     14 N          66.8044   93.1016   15.5222 N.1     1  UNL1       -0.1908
     15 C          65.9431   92.1294   14.7718 C.1     1  UNL1        0.1004
     16 C          63.4048   83.7067   12.9299 C.ar    1  UNL1        0.0991
     17 C          64.1167   83.7485   11.6102 C.ar    1  UNL1        0.0230
     18 C          63.9934   82.5988   10.6548 C.ar    1  UNL1        0.0328
     19 C          63.1581   81.4072   11.0190 C.ar    1  UNL1        0.1592
     20 F          63.0347   80.2575   10.0635 F       1  UNL1       -0.2025
     21 C          62.4461   81.3655   12.3386 C.ar    1  UNL1        0.1284
     22 N          62.5695   82.5153   13.2940 N.ar    1  UNL1       -0.2400
@<TRIPOS>BOND
     1    14    15    3
     2    15     7    1
     3     7     8   ar
     4     8     9   ar
     5     9    10    1
     6     9    11   ar
     7    11    12   ar
     8    12     1    1
     9     1     2   ar
    10     2     3   ar
    11     3    16    1
    12    16    17   ar
    13    17    18   ar
    14    18    19   ar
    15    19    20    1
    16    19    21   ar
    17    21    22   ar
    18     3     4   ar
    19     4     5   ar
    20     5     6   ar
    21    12    13   ar
    22    13     7   ar
    23     6     1   ar
    24    22    16   ar
@<TRIPOS>MOLECULE
*****
 22 24 0 0 0
SMALL
GASTEIGER

@<TRIPOS>ATOM
      1 C          62.2744   89.7953   11.6722 C.ar    1  UNL1        0.0846
      2 C          62.4066   88.7761   10.5797 C.ar    1  UNL1        0.0398
      3 C          61.2284   87.9308   10.1959 C.ar    1  UNL1        0.1021
      4 N          59.9179   88.1046   10.9048 N.ar    1  UNL1       -0.2224
      5 C          59.7857   89.1239   11.9975 C.ar    1  UNL1        0.1989
      6 N          60.9639   89.9692   12.3811 N.ar    1  UNL1       -0.2240
      7 C          65.2850   92.3686   11.4183 C.ar    1  UNL1        0.0693
      8 C          65.8090   92.3313   12.8233 C.ar    1  UNL1        0.0217
      9 C          65.1548   91.4487   13.8446 C.ar    1  UNL1        0.0584
     10 CL         65.6789   91.4115   15.2496 Cl      1  UNL1       -0.0822
     11 C          63.9766   90.6034   13.4609 C.ar    1  UNL1        0.0129
     12 C          63.4526   90.6407   12.0560 C.ar    1  UNL1        0.0193
     13 C          64.1068   91.5233   11.0347 C.ar    1  UNL1        0.0118
     14 N          66.5933   94.1339    9.3757 N.1     1  UNL1       -0.1908
     15 C          65.9391   93.2513   10.3970 C.1     1  UNL1        0.1004
     16 C          61.3606   86.9116    9.1033 C.ar    1  UNL1        0.0991
     17 C          62.6586   86.1857    8.9079 C.ar    1  UNL1        0.0230
     18 C          62.7908   85.1665    7.8153 C.ar    1  UNL1        0.0328
     19 C          61.6250   84.8732    6.9181 C.ar    1  UNL1        0.1592
     20 F          61.7572   83.8541    5.8255 F       1  UNL1       -0.2025
     21 C          60.3270   85.5991    7.1136 C.ar    1  UNL1        0.1284
     22 N          60.1948   86.6184    8.2062 N.ar    1  UNL1       -0.2400
@<TRIPOS>BOND
     1    14    15    3
     2    15     7    1
     3     7     8   ar
     4     8     9   ar
     5     9    10    1
     6     9    11   ar
     7    11    12   ar
     8    12     1    1
     9     1     2   ar
    10     2     3   ar
    11     3    16    1
    12    16    17   ar
    13    17    18   ar
    14    18    19   ar
    15    19    20    1
    16    19    21   ar
    17    21    22   ar
    18     3     4   ar
    19     4     5   ar
    20     5     6   ar
    21    12    13   ar
    22    13     7   ar
    23     6     1   ar
    24    22    16   ar
@<TRIPOS>MOLECULE
*****
 22 24 0 0 0
SMALL
GASTEIGER

@<TRIPOS>ATOM
      1 C          64.4365   89.9654   15.0011 C.ar    1  UNL1        0.0846
      2 C          64.5407   88.6162   14.3541 C.ar    1  UNL1        0.0398
      3 C          63.8426   87.4364   14.9632 C.ar    1  UNL1        0.1021
      4 N          63.0403   87.6060   16.2192 N.ar    1  UNL1       -0.2224
      5 C          62.9361   88.9554   16.8661 C.ar    1  UNL1        0.1989
      6 N          63.6342   90.1350   16.2571 N.ar    1  UNL1       -0.2240
      7 C          66.8617   93.0776   14.5734 C.ar    1  UNL1        0.0693
      8 C          66.5309   93.5046   13.1740 C.ar    1  UNL1        0.0217
      9 C          65.5020   92.7518   12.3837 C.ar    1  UNL1        0.0584
     10 CL         65.1712   93.1788   10.9842 Cl      1  UNL1       -0.0822
     11 C          64.8039   91.5721   12.9927 C.ar    1  UNL1        0.0129
     12 C          65.1347   91.1452   14.3920 C.ar    1  UNL1        0.0193
     13 C          66.1636   91.8979   15.1824 C.ar    1  UNL1        0.0118
     14 N          68.9196   94.5831   16.1541 N.1     1  UNL1       -0.1908
     15 C          67.8907   93.8304   15.3638 C.1     1  UNL1        0.1004
     16 C          63.9468   86.0871   14.3163 C.ar    1  UNL1        0.0991
     17 C          64.8586   85.0462   14.8951 C.ar    1  UNL1        0.0230
     18 C          64.9628   83.6970   14.2482 C.ar    1  UNL1        0.0328
     19 C          64.1552   83.3885   13.0223 C.ar    1  UNL1        0.1592
     20 F          64.2594   82.0393   12.3754 F       1  UNL1       -0.2025
     21 C          63.2434   84.4295   12.4435 C.ar    1  UNL1        0.1284
     22 N          63.1392   85.7788   13.0905 N.ar    1  UNL1       -0.2400
@<TRIPOS>BOND
     1    14    15    3
     2    15     7    1
     3     7     8   ar
     4     8     9   ar
     5     9    10    1
     6     9    11   ar
     7    11    12   ar
     8    12     1    1
     9     1     2   ar
    10     2     3   ar
    11     3    16    1
    12    16    17   ar
    13    17    18   ar
    14    18    19   ar
    15    19    20    1
    16    19    21   ar
    17    21    22   ar
    18     3     4   ar
    19     4     5   ar
    20     5     6   ar
    21    12    13   ar
    22    13     7   ar
    23     6     1   ar
    24    22    16   ar
@<TRIPOS>MOLECULE
*****
 22 24 0 0 0
SMALL
GASTEIGER

@<TRIPOS>ATOM
      1 C          62.7571   89.8424   11.8387 C.ar    1  UNL1        0.0846
      2 C          63.1147   88.3861   11.8739 C.ar    1  UNL1        0.0398
      3 C          62.0581   87.3483   11.6355 C.ar    1  UNL1        0.1021
      4 N          60.6439   87.7669   11.3620 N.ar    1  UNL1       -0.2224
      5 C          60.2863   89.2233   11.3268 C.ar    1  UNL1        0.1989
      6 N          61.3429   90.2610   11.5652 N.ar    1  UNL1       -0.2240
      7 C          65.3960   92.1482   13.7013 C.ar    1  UNL1        0.0693
      8 C          65.9267   92.9556   12.5539 C.ar    1  UNL1        0.0217
      9 C          65.4009   92.7252   11.1681 C.ar    1  UNL1        0.0584
     10 CL         65.9316   93.5326   10.0207 Cl      1  UNL1       -0.0822
     11 C          64.3443   91.6875   10.9297 C.ar    1  UNL1        0.0129
     12 C          63.8136   90.8802   12.0771 C.ar    1  UNL1        0.0193
     13 C          64.3395   91.1105   13.4629 C.ar    1  UNL1        0.0118
     14 N          66.4477   92.6090   16.4729 N.1     1  UNL1       -0.1908
     15 C          65.9218   92.3786   15.0871 C.1     1  UNL1        0.1004
     16 C          62.4157   85.8920   11.6707 C.ar    1  UNL1        0.0991
     17 C          62.7486   85.1705   10.3984 C.ar    1  UNL1        0.0230
     18 C          63.1063   83.7143   10.4336 C.ar    1  UNL1        0.0328
     19 C          63.1310   82.9794   11.7411 C.ar    1  UNL1        0.1592
     20 F          63.4887   81.5231   11.7763 F       1  UNL1       -0.2025
     21 C          62.7981   83.7009   13.0134 C.ar    1  UNL1        0.1284
     22 N          62.4405   85.1573   12.9781 N.ar    1  UNL1       -0.2400
@<TRIPOS>BOND
     1    14    15    3
     2    15     7    1
     3     7     8   ar
     4     8     9   ar
     5     9    10    1
     6     9    11   ar
     7    11    12   ar
     8    12     1    1
     9     1     2   ar
    10     2     3   ar
    11     3    16    1
    12    16    17   ar
    13    17    18   ar
    14    18    19   ar
    15    19    20    1
    16    19    21   ar
    17    21    22   ar
    18     3     4   ar
    19     4     5   ar
    20     5     6   ar
    21    12    13   ar
    22    13     7   ar
    23     6     1   ar
    24    22    16   ar
@<TRIPOS>MOLECULE
*****
 22 24 0 0 0
SMALL
GASTEIGER

@<TRIPOS>ATOM
      1 C          62.8030   89.8269   11.9100 C.ar    1  UNL1        0.0846
      2 C          63.1349   88.3643   11.9277 C.ar    1  UNL1        0.0398
      3 C          62.0850   87.3526   11.5749 C.ar    1  UNL1        0.1021
      4 N          60.7033   87.8037   11.2043 N.ar    1  UNL1       -0.2224
      5 C          60.3714   89.2665   11.1866 C.ar    1  UNL1        0.1989
      6 N          61.4213   90.2781   11.5394 N.ar    1  UNL1       -0.2240
      7 C          65.4559   92.7573   11.5567 C.ar    1  UNL1        0.0693
      8 C          65.9525   92.8618   12.9682 C.ar    1  UNL1        0.0217
      9 C          65.3993   91.9547   14.0270 C.ar    1  UNL1        0.0584
     10 CL         65.8959   92.0592   15.4386 Cl      1  UNL1       -0.0822
     11 C          64.3495   90.9430   13.6743 C.ar    1  UNL1        0.0129
     12 C          63.8529   90.8386   12.2628 C.ar    1  UNL1        0.0193
     13 C          64.4061   91.7457   11.2040 C.ar    1  UNL1        0.0118
     14 N          66.5624   94.5717    9.4392 N.1     1  UNL1       -0.1908
     15 C          66.0091   93.6645   10.4979 C.1     1  UNL1        0.1004
     16 C          62.4169   85.8899   11.5926 C.ar    1  UNL1        0.0991
     17 C          62.7615   85.1835   10.3151 C.ar    1  UNL1        0.0230
     18 C          63.0934   83.7208   10.3328 C.ar    1  UNL1        0.0328
     19 C          63.0807   82.9645   11.6282 C.ar    1  UNL1        0.1592
     20 F          63.4125   81.5018   11.6459 F       1  UNL1       -0.2025
     21 C          62.7360   83.6709   12.9057 C.ar    1  UNL1        0.1284
     22 N          62.4041   85.1337   12.8879 N.ar    1  UNL1       -0.2400
@<TRIPOS>BOND
     1    14    15    3
     2    15     7    1
     3     7     8   ar
     4     8     9   ar
     5     9    10    1
     6     9    11   ar
     7    11    12   ar
     8    12     1    1
     9     1     2   ar
    10     2     3   ar
    11     3    16    1
    12    16    17   ar
    13    17    18   ar
    14    18    19   ar
    15    19    20    1
    16    19    21   ar
    17    21    22   ar
    18     3     4   ar
    19     4     5   ar
    20     5     6   ar
    21    12    13   ar
    22    13     7   ar
    23     6     1   ar
    24    22    16   ar
@<TRIPOS>MOLECULE
*****
 22 24 0 0 0
SMALL
GASTEIGER

@<TRIPOS>ATOM
      1 C          63.5177   87.2354   13.2441 C.ar    1  UNL1        0.0846
      2 C          63.2598   85.8319   12.7820 C.ar    1  UNL1        0.0398
      3 C          63.5802   84.6751   13.6817 C.ar    1  UNL1        0.1021
      4 N          64.1586   84.9220   15.0435 N.ar    1  UNL1       -0.2224
      5 C          64.4165   86.3256   15.5056 C.ar    1  UNL1        0.1989
      6 N          64.0961   87.4822   14.6059 N.ar    1  UNL1       -0.2240
      7 C          61.8802   89.3829   10.3361 C.ar    1  UNL1        0.0693
      8 C          62.5565   90.7054   10.5451 C.ar    1  UNL1        0.0217
      9 C          63.5531   90.8712   11.6537 C.ar    1  UNL1        0.0584
     10 CL         64.2294   92.1938   11.8627 Cl      1  UNL1       -0.0822
     11 C          63.8736   89.7146   12.5534 C.ar    1  UNL1        0.0129
     12 C          63.1973   88.3921   12.3444 C.ar    1  UNL1        0.0193
     13 C          62.2007   88.2263   11.2357 C.ar    1  UNL1        0.0118
     14 N          59.8869   89.0513    8.1187 N.1     1  UNL1       -0.1908
     15 C          60.8836   89.2171    9.2274 C.1     1  UNL1        0.1004
     16 C          63.3222   83.2716   13.2195 C.ar    1  UNL1        0.0991
     17 C          63.2678   82.9631   11.7526 C.ar    1  UNL1        0.0230
     18 C          63.0098   81.5596   11.2905 C.ar    1  UNL1        0.0328
     19 C          62.8063   80.4646   12.2953 C.ar    1  UNL1        0.1592
     20 F          62.5483   79.0611   11.8331 F       1  UNL1       -0.2025
     21 C          62.8607   80.7731   13.7622 C.ar    1  UNL1        0.1284
     22 N          63.1187   82.1767   14.2243 N.ar    1  UNL1       -0.2400
@<TRIPOS>BOND
     1    14    15    3
     2    15     7    1
     3     7     8   ar
     4     8     9   ar
     5     9    10    1
     6     9    11   ar
     7    11    12   ar
     8    12     1    1
     9     1     2   ar
    10     2     3   ar
    11     3    16    1
    12    16    17   ar
    13    17    18   ar
    14    18    19   ar
    15    19    20    1
    16    19    21   ar
    17    21    22   ar
    18     3     4   ar
    19     4     5   ar
    20     5     6   ar
    21    12    13   ar
    22    13     7   ar
    23     6     1   ar
    24    22    16   ar
@<TRIPOS>MOLECULE
*****
 22 24 0 0 0
SMALL
GASTEIGER

@<TRIPOS>ATOM
      1 C          63.8815   87.1248   14.5098 C.ar    1  UNL1        0.0846
      2 C          63.7666   86.0321   13.4887 C.ar    1  UNL1        0.0398
      3 C          63.5720   84.6114   13.9291 C.ar    1  UNL1        0.1021
      4 N          63.4922   84.2836   15.3907 N.ar    1  UNL1       -0.2224
      5 C          63.6071   85.3764   16.4118 C.ar    1  UNL1        0.1989
      6 N          63.8017   86.7970   15.9714 N.ar    1  UNL1       -0.2240
      7 C          63.7437   90.4179   12.2992 C.ar    1  UNL1        0.0693
      8 C          64.4654   91.3866   13.1884 C.ar    1  UNL1        0.0217
      9 C          64.9925   90.9347   14.5181 C.ar    1  UNL1        0.0584
     10 CL         65.7142   91.9035   15.4073 Cl      1  UNL1       -0.0822
     11 C          64.7979   89.5142   14.9586 C.ar    1  UNL1        0.0129
     12 C          64.0762   88.5455   14.0693 C.ar    1  UNL1        0.0193
     13 C          63.5491   88.9973   12.7397 C.ar    1  UNL1        0.0118
     14 N          62.6896   91.3216    9.6399 N.1     1  UNL1       -0.1908
     15 C          63.2167   90.8697   10.9695 C.1     1  UNL1        0.1004
     16 C          63.4571   83.5187   12.9081 C.ar    1  UNL1        0.0991
     17 C          64.0511   83.7023   11.5430 C.ar    1  UNL1        0.0230
     18 C          63.9362   82.6095   10.5219 C.ar    1  UNL1        0.0328
     19 C          63.2273   81.3331   10.8658 C.ar    1  UNL1        0.1592
     20 F          63.1124   80.2404    9.8447 F       1  UNL1       -0.2025
     21 C          62.6333   81.1495   12.2309 C.ar    1  UNL1        0.1284
     22 N          62.7482   82.2423   13.2520 N.ar    1  UNL1       -0.2400
@<TRIPOS>BOND
     1    14    15    3
     2    15     7    1
     3     7     8   ar
     4     8     9   ar
     5     9    10    1
     6     9    11   ar
     7    11    12   ar
     8    12     1    1
     9     1     2   ar
    10     2     3   ar
    11     3    16    1
    12    16    17   ar
    13    17    18   ar
    14    18    19   ar
    15    19    20    1
    16    19    21   ar
    17    21    22   ar
    18     3     4   ar
    19     4     5   ar
    20     5     6   ar
    21    12    13   ar
    22    13     7   ar
    23     6     1   ar
    24    22    16   ar
@<TRIPOS>MOLECULE
*****
 22 24 0 0 0
SMALL
GASTEIGER

@<TRIPOS>ATOM
      1 C          62.0297   87.8089   11.0467 C.ar    1  UNL1        0.0846
      2 C          62.9503   88.5117   11.9999 C.ar    1  UNL1        0.0398
      3 C          62.5658   89.8458   12.5679 C.ar    1  UNL1        0.1021
      4 N          61.2607   90.4769   12.1828 N.ar    1  UNL1       -0.2224
      5 C          60.3401   89.7741   11.2295 C.ar    1  UNL1        0.1989
      6 N          60.7246   88.4401   10.6615 N.ar    1  UNL1       -0.2240
      7 C          63.1577   84.0102   10.8286 C.ar    1  UNL1        0.0693
      8 C          63.1831   83.8070    9.3427 C.ar    1  UNL1        0.0217
      9 C          62.8241   84.9377    8.4247 C.ar    1  UNL1        0.0584
     10 CL         62.8495   84.7343    6.9387 Cl      1  UNL1       -0.0822
     11 C          62.4396   86.2716    8.9927 C.ar    1  UNL1        0.0129
     12 C          62.4142   86.4749   10.4786 C.ar    1  UNL1        0.0193
     13 C          62.7733   85.3442   11.3966 C.ar    1  UNL1        0.0118
     14 N          63.8759   81.7488   12.6644 N.1     1  UNL1       -0.1908
     15 C          63.5168   82.8795   11.7465 C.1     1  UNL1        0.1004
     16 C          63.4864   90.5485   13.5211 C.ar    1  UNL1        0.0991
     17 C          64.6828   91.2884   13.0003 C.ar    1  UNL1        0.0230
     18 C          65.6034   91.9912   13.9535 C.ar    1  UNL1        0.0328
     19 C          65.3276   91.9541   15.4275 C.ar    1  UNL1        0.1592
     20 F          66.2482   92.6569   16.3807 F       1  UNL1       -0.2025
     21 C          64.1312   91.2142   15.9483 C.ar    1  UNL1        0.1284
     22 N          63.2106   90.5114   14.9950 N.ar    1  UNL1       -0.2400
@<TRIPOS>BOND
     1    14    15    3
     2    15     7    1
     3     7     8   ar
     4     8     9   ar
     5     9    10    1
     6     9    11   ar
     7    11    12   ar
     8    12     1    1
     9     1     2   ar
    10     2     3   ar
    11     3    16    1
    12    16    17   ar
    13    17    18   ar
    14    18    19   ar
    15    19    20    1
    16    19    21   ar
    17    21    22   ar
    18     3     4   ar
    19     4     5   ar
    20     5     6   ar
    21    12    13   ar
    22    13     7   ar
    23     6     1   ar
    24    22    16   ar
@<TRIPOS>MOLECULE
*****
 22 24 0 0 0
SMALL
GASTEIGER

@<TRIPOS>ATOM
      1 C          64.6017   90.3062   15.1426 C.ar    1  UNL1        0.0846
      2 C          64.7184   88.9629   14.4853 C.ar    1  UNL1        0.0398
      3 C          63.9226   87.8022   15.0044 C.ar    1  UNL1        0.1021
      4 N          63.0100   87.9848   16.1808 N.ar    1  UNL1       -0.2224
      5 C          62.8933   89.3281   16.8381 C.ar    1  UNL1        0.1989
      6 N          63.6891   90.4887   16.3190 N.ar    1  UNL1       -0.2240
      7 C          65.9835   93.1129   12.7007 C.ar    1  UNL1        0.0693
      8 C          66.9891   93.7883   13.5853 C.ar    1  UNL1        0.0217
      9 C          67.1988   93.3030   14.9890 C.ar    1  UNL1        0.0584
     10 CL         68.2045   93.9785   15.8737 Cl      1  UNL1       -0.0822
     11 C          66.4031   92.1423   15.5081 C.ar    1  UNL1        0.0129
     12 C          65.3975   91.4669   14.6235 C.ar    1  UNL1        0.0193
     13 C          65.1877   91.9522   13.2198 C.ar    1  UNL1        0.0118
     14 N          65.5639   94.0834    9.8932 N.1     1  UNL1       -0.1908
     15 C          65.7737   93.5981   11.2969 C.1     1  UNL1        0.1004
     16 C          64.0393   86.4590   14.3472 C.ar    1  UNL1        0.0991
     17 C          65.0037   85.4429   14.8834 C.ar    1  UNL1        0.0230
     18 C          65.1204   84.0996   14.2261 C.ar    1  UNL1        0.0328
     19 C          64.2728   83.7725   13.0325 C.ar    1  UNL1        0.1592
     20 F          64.3896   82.4292   12.3753 F       1  UNL1       -0.2025
     21 C          63.3085   84.7886   12.4963 C.ar    1  UNL1        0.1284
     22 N          63.1918   86.1319   13.1536 N.ar    1  UNL1       -0.2400
@<TRIPOS>BOND
     1    14    15    3
     2    15     7    1
     3     7     8   ar
     4     8     9   ar
     5     9    10    1
     6     9    11   ar
     7    11    12   ar
     8    12     1    1
     9     1     2   ar
    10     2     3   ar
    11     3    16    1
    12    16    17   ar
    13    17    18   ar
    14    18    19   ar
    15    19    20    1
    16    19    21   ar
    17    21    22   ar
    18     3     4   ar
    19     4     5   ar
    20     5     6   ar
    21    12    13   ar
    22    13     7   ar
    23     6     1   ar
    24    22    16   ar
