@<TRIPOS>MOLECULE
*****
 44 48 0 0 0
SMALL
GASTEIGER

@<TRIPOS>ATOM
      1 C          62.2314   89.6630   11.9930 C.3     1  UNL1        0.1305
      2 N          62.1484   88.3179   11.3345 N.ar    1  UNL1       -0.3242
      3 C          62.6263   87.0205   11.9161 C.ar    1  UNL1        0.0738
      4 C          62.3461   85.9348   10.9198 C.ar    1  UNL1       -0.0038
      5 C          61.6950   86.5611    9.7224 C.ar    1  UNL1        0.0133
      6 C          61.1976   85.9807    8.4318 C.ar    1  UNL1        0.0013
      7 C          60.5780   86.8730    7.3976 C.ar    1  UNL1        0.0046
      8 C          60.4558   88.3459    7.6539 C.ar    1  UNL1        0.0548
      9 C          60.9532   88.9264    8.9445 C.ar    1  UNL1        0.0217
     10 C          61.5728   88.0340    9.9787 C.ar    1  UNL1        0.0598
     11 C          63.2712   86.8404   13.2584 C.ar    1  UNL1        0.0967
     12 C          63.9950   87.9855   13.9024 C.ar    1  UNL1        0.0206
     13 C          64.6399   87.8054   15.2447 C.ar    1  UNL1        0.0032
     14 C          64.5610   86.4802   15.9429 C.ar    1  UNL1        0.0207
     15 C          63.8373   85.3351   15.2989 C.ar    1  UNL1        0.0989
     16 N          63.1924   85.5152   13.9566 N.ar    1  UNL1       -0.2424
     17 C          62.6616   84.4783   11.0908 C.3     1  UNL1        0.0238
     18 C          63.6217   83.8041   10.1559 C.3     1  UNL1        0.0044
     19 C          63.9372   82.3476   10.3269 C.3     1  UNL1        0.0003
     20 C          63.2927   81.5654   11.4327 C.3     1  UNL1        0.0000
     21 C          62.3327   82.2396   12.3674 C.3     1  UNL1        0.0003
     22 C          62.0172   83.6960   12.1964 C.3     1  UNL1        0.0044
     23 C          59.8362   89.2383    6.6196 C.2     1  UNL1        0.2461
     24 O          58.3697   89.1355    6.3218 O.2     1  UNL1       -0.2701
     25 N          60.6831   90.2334    5.8831 N.am    1  UNL1       -0.2964
     26 H          61.6457   90.3009    6.0785 H       1  UNL1        0.1501
     27 C          60.0635   91.1258    4.8488 C.3     1  UNL1        0.1262
     28 C          58.7508   91.0511    5.5706 C.3     1  UNL1        0.0290
     29 C          61.3762   91.2005    4.1269 C.3     1  UNL1        0.0290
     30 C          59.4439   92.0182    3.8145 C.2     1  UNL1        0.2419
     31 O          57.9932   92.3863    3.9135 O.2     1  UNL1       -0.2731
     32 N          60.2751   92.5424    2.6812 N.am    1  UNL1       -0.2826
     33 H          61.2273   92.3008    2.6162 H       1  UNL1        0.1549
     34 C          59.6556   93.4348    1.6469 C.ar    1  UNL1        0.0503
     35 C          59.9669   94.9021    1.6386 C.ar    1  UNL1        0.0147
     36 C          59.3474   95.7945    0.6043 C.ar    1  UNL1        0.0013
     37 C          58.4164   95.2196   -0.4217 C.ar    1  UNL1        0.0001
     38 C          58.1050   93.7523   -0.4135 C.ar    1  UNL1        0.0013
     39 C          58.7246   92.8599    0.6208 C.ar    1  UNL1        0.0147
     40 C          57.7969   96.1119   -1.4560 C.2     1  UNL1        0.0012
     41 C          57.0909   95.5140   -2.6367 C.2     1  UNL1        0.0151
     42 C          56.4713   96.4064   -3.6711 C.2     1  UNL1        0.0729
     43 O          55.0482   96.8552   -3.5190 O.co2   1  UNL1       -0.5446
     44 O          57.2750   96.8500   -4.8574 O.co2   1  UNL1       -0.5446
@<TRIPOS>UNITY_ATOM_ATTR
43 1
charge -1
@<TRIPOS>BOND
     1     1     2    1
     2     2     3   ar
     3     3    11    1
     4    11    12   ar
     5    12    13   ar
     6    13    14   ar
     7    14    15   ar
     8    15    16   ar
     9     3     4   ar
    10     4    17    1
    11    17    18    1
    12    18    19    1
    13    19    20    1
    14    20    21    1
    15    21    22    1
    16     4     5   ar
    17     5     6   ar
    18     6     7   ar
    19     7     8   ar
    20     8    23    1
    21    23    24    2
    22    23    25   am
    23    25    27    1
    24    27    28    1
    25    27    29    1
    26    27    30    1
    27    30    31    2
    28    30    32   am
    29    32    34    1
    30    34    35   ar
    31    35    36   ar
    32    36    37   ar
    33    37    40    1
    34    40    41    2
    35    41    42    1
    36    42    43   ar
    37    42    44   ar
    38    37    38   ar
    39    38    39   ar
    40     8     9   ar
    41     9    10   ar
    42    10     2   ar
    43    16    11   ar
    44    22    17    1
    45    10     5   ar
    46    39    34   ar
    47    25    26    1
    48    32    33    1
@<TRIPOS>MOLECULE
*****
 44 48 0 0 0
SMALL
GASTEIGER

@<TRIPOS>ATOM
      1 C          61.4444   84.4862    8.3705 C.3     1  UNL1        0.1305
      2 N          61.7342   85.6631    9.2542 N.ar    1  UNL1       -0.3242
      3 C          62.4284   85.6180   10.5832 C.ar    1  UNL1        0.0738
      4 C          62.5037   87.0188   11.1144 C.ar    1  UNL1       -0.0038
      5 C          61.8561   87.9295   10.1138 C.ar    1  UNL1        0.0133
      6 C          61.6381   89.4135   10.1010 C.ar    1  UNL1        0.0013
      7 C          60.9444   90.0596    8.9385 C.ar    1  UNL1        0.0046
      8 C          60.4688   89.2217    7.7889 C.ar    1  UNL1        0.0548
      9 C          60.6868   87.7377    7.8017 C.ar    1  UNL1        0.0217
     10 C          61.3805   87.0916    8.9641 C.ar    1  UNL1        0.0598
     11 C          62.9547   84.3882   11.2617 C.ar    1  UNL1        0.0967
     12 C          64.1143   83.6432   10.6699 C.ar    1  UNL1        0.0206
     13 C          64.6407   82.4134   11.3484 C.ar    1  UNL1        0.0032
     14 C          64.0075   81.9285   12.6188 C.ar    1  UNL1        0.0207
     15 C          62.8479   82.6735   13.2106 C.ar    1  UNL1        0.0989
     16 N          62.3215   83.9033   12.5321 N.ar    1  UNL1       -0.2424
     17 C          63.1188   87.4357   12.4174 C.3     1  UNL1        0.0238
     18 C          63.5538   86.3965   13.4080 C.3     1  UNL1        0.0044
     19 C          64.1688   86.8134   14.7110 C.3     1  UNL1        0.0003
     20 C          64.3488   88.2693   15.0236 C.3     1  UNL1        0.0000
     21 C          63.9138   89.3084   14.0332 C.3     1  UNL1        0.0003
     22 C          63.2988   88.8915   12.7301 C.3     1  UNL1        0.0044
     23 C          59.7751   89.8679    6.6264 C.2     1  UNL1        0.2461
     24 O          58.3578   89.5006    6.3002 O.2     1  UNL1       -0.2701
     25 N          60.4987   90.8813    5.7901 N.am    1  UNL1       -0.2964
     26 H          61.4289   91.1224    6.0042 H       1  UNL1        0.1501
     27 C          59.8050   91.5275    4.6276 C.3     1  UNL1        0.1262
     28 C          58.4991   91.4446    5.3608 C.3     1  UNL1        0.0290
     29 C          61.1109   91.6103    3.8944 C.3     1  UNL1        0.0290
     30 C          59.1114   92.1736    3.4652 C.2     1  UNL1        0.2419
     31 O          57.6208   92.3409    3.4798 O.2     1  UNL1       -0.2731
     32 N          59.9083   92.6525    2.2881 N.am    1  UNL1       -0.2826
     33 H          60.8866   92.5427    2.2785 H       1  UNL1        0.1549
     34 C          59.2147   93.2986    1.1256 C.ar    1  UNL1        0.0503
     35 C          58.3395   92.4789    0.2244 C.ar    1  UNL1        0.0147
     36 C          57.6459   93.1250   -0.9381 C.ar    1  UNL1        0.0013
     37 C          57.8274   94.5909   -1.1994 C.ar    1  UNL1        0.0001
     38 C          58.7025   95.4107   -0.2982 C.ar    1  UNL1        0.0013
     39 C          59.3962   94.7645    0.8643 C.ar    1  UNL1        0.0147
     40 C          57.1338   95.2371   -2.3618 C.2     1  UNL1        0.0012
     41 C          55.9309   94.5836   -2.9751 C.2     1  UNL1        0.0151
     42 C          55.2373   95.2298   -4.1376 C.2     1  UNL1        0.0729
     43 O          55.2007   94.5381   -5.4680 O.co2   1  UNL1       -0.5446
     44 O          54.5802   96.5678   -3.9696 O.co2   1  UNL1       -0.5446
@<TRIPOS>UNITY_ATOM_ATTR
43 1
charge -1
@<TRIPOS>BOND
     1     1     2    1
     2     2     3   ar
     3     3    11    1
     4    11    12   ar
     5    12    13   ar
     6    13    14   ar
     7    14    15   ar
     8    15    16   ar
     9     3     4   ar
    10     4    17    1
    11    17    18    1
    12    18    19    1
    13    19    20    1
    14    20    21    1
    15    21    22    1
    16     4     5   ar
    17     5     6   ar
    18     6     7   ar
    19     7     8   ar
    20     8    23    1
    21    23    24    2
    22    23    25   am
    23    25    27    1
    24    27    28    1
    25    27    29    1
    26    27    30    1
    27    30    31    2
    28    30    32   am
    29    32    34    1
    30    34    35   ar
    31    35    36   ar
    32    36    37   ar
    33    37    40    1
    34    40    41    2
    35    41    42    1
    36    42    43   ar
    37    42    44   ar
    38    37    38   ar
    39    38    39   ar
    40     8     9   ar
    41     9    10   ar
    42    10     2   ar
    43    16    11   ar
    44    22    17    1
    45    10     5   ar
    46    39    34   ar
    47    25    26    1
    48    32    33    1
@<TRIPOS>MOLECULE
*****
 44 48 0 0 0
SMALL
GASTEIGER

@<TRIPOS>ATOM
      1 C          62.9156   94.0622   -2.6690 C.3     1  UNL1        0.1305
      2 N          61.4257   94.1365   -2.5117 N.ar    1  UNL1       -0.3242
      3 C          60.4582   94.6764   -3.5228 C.ar    1  UNL1        0.0738
      4 C          59.0763   94.5575   -2.9516 C.ar    1  UNL1       -0.0038
      5 C          59.1898   93.9441   -1.5874 C.ar    1  UNL1        0.0133
      6 C          58.1585   93.5890   -0.5577 C.ar    1  UNL1        0.0013
      7 C          58.5793   92.9736    0.7439 C.ar    1  UNL1        0.0046
      8 C          60.0313   92.7134    1.0158 C.ar    1  UNL1        0.0548
      9 C          61.0626   93.0686   -0.0139 C.ar    1  UNL1        0.0217
     10 C          60.6418   93.6840   -1.3155 C.ar    1  UNL1        0.0598
     11 C          60.8106   95.2368   -4.8688 C.ar    1  UNL1        0.0967
     12 C          60.1011   94.7447   -6.0953 C.ar    1  UNL1        0.0206
     13 C          60.4535   95.3050   -7.4413 C.ar    1  UNL1        0.0032
     14 C          61.5156   96.3575   -7.5609 C.ar    1  UNL1        0.0207
     15 C          62.2251   96.8496   -6.3344 C.ar    1  UNL1        0.0989
     16 N          61.8727   96.2892   -4.9884 N.ar    1  UNL1       -0.2424
     17 C          57.8042   94.9781   -3.6261 C.3     1  UNL1        0.0238
     18 C          56.8631   93.9419   -4.1654 C.3     1  UNL1        0.0044
     19 C          55.5911   94.3625   -4.8399 C.3     1  UNL1        0.0003
     20 C          55.2601   95.8193   -4.9752 C.3     1  UNL1        0.0000
     21 C          56.2012   96.8554   -4.4360 C.3     1  UNL1        0.0003
     22 C          57.4732   96.4348   -3.7615 C.3     1  UNL1        0.0044
     23 C          60.4521   92.0980    2.3174 C.2     1  UNL1        0.2461
     24 O          61.9093   91.9459    2.6388 O.2     1  UNL1       -0.2701
     25 N          59.4156   91.6347    3.2977 N.am    1  UNL1       -0.2964
     26 H          58.4591   91.7345    3.0868 H       1  UNL1        0.1501
     27 C          59.8363   91.0192    4.5994 C.3     1  UNL1        0.1262
     28 C          58.4326   91.1454    5.1128 C.3     1  UNL1        0.0290
     29 C          61.2400   90.8931    4.0860 C.3     1  UNL1        0.0290
     30 C          60.2571   90.4039    5.9010 C.2     1  UNL1        0.2419
     31 O          61.3911   91.0005    6.6807 O.2     1  UNL1       -0.2731
     32 N          59.5439   89.1919    6.4229 N.am    1  UNL1       -0.2826
     33 H          58.7996   88.8003    5.9111 H       1  UNL1        0.1549
     34 C          59.9646   88.5765    7.7245 C.ar    1  UNL1        0.0503
     35 C          60.3322   87.1233    7.7830 C.ar    1  UNL1        0.0147
     36 C          60.7530   86.5080    9.0846 C.ar    1  UNL1        0.0013
     37 C          60.8062   87.3456   10.3277 C.ar    1  UNL1        0.0001
     38 C          60.4387   88.7987   10.2693 C.ar    1  UNL1        0.0013
     39 C          60.0179   89.4142    8.9676 C.ar    1  UNL1        0.0147
     40 C          61.2270   86.7303   11.6293 C.2     1  UNL1        0.0012
     41 C          62.2016   85.5901   11.6395 C.2     1  UNL1        0.0151
     42 C          62.6224   84.9747   12.9412 C.2     1  UNL1        0.0729
     43 O          63.2663   85.8223   13.9981 O.co2   1  UNL1       -0.5446
     44 O          62.3993   83.5117   13.1859 O.co2   1  UNL1       -0.5446
@<TRIPOS>UNITY_ATOM_ATTR
43 1
charge -1
@<TRIPOS>BOND
     1     1     2    1
     2     2     3   ar
     3     3    11    1
     4    11    12   ar
     5    12    13   ar
     6    13    14   ar
     7    14    15   ar
     8    15    16   ar
     9     3     4   ar
    10     4    17    1
    11    17    18    1
    12    18    19    1
    13    19    20    1
    14    20    21    1
    15    21    22    1
    16     4     5   ar
    17     5     6   ar
    18     6     7   ar
    19     7     8   ar
    20     8    23    1
    21    23    24    2
    22    23    25   am
    23    25    27    1
    24    27    28    1
    25    27    29    1
    26    27    30    1
    27    30    31    2
    28    30    32   am
    29    32    34    1
    30    34    35   ar
    31    35    36   ar
    32    36    37   ar
    33    37    40    1
    34    40    41    2
    35    41    42    1
    36    42    43   ar
    37    42    44   ar
    38    37    38   ar
    39    38    39   ar
    40     8     9   ar
    41     9    10   ar
    42    10     2   ar
    43    16    11   ar
    44    22    17    1
    45    10     5   ar
    46    39    34   ar
    47    25    26    1
    48    32    33    1
