@<TRIPOS>MOLECULE
*****
 46 52 0 0 0
SMALL
GASTEIGER

@<TRIPOS>ATOM
      1 C          62.1492   86.9862   10.4960 C.2     1  UNL1        0.0770
      2 N          62.7302   86.1920   11.6281 N.2     1  UNL1       -0.2460
      3 C          63.3070   87.1558   12.6223 C.2     1  UNL1        0.0773
      4 C          64.0076   86.9474   13.9321 C.2     1  UNL1        0.0182
      5 C          64.4837   88.1288   14.7242 C.2     1  UNL1       -0.0062
      6 C          64.2592   89.5186   14.2065 C.2     1  UNL1       -0.0322
      7 C          63.5586   89.7270   12.8967 C.3     1  UNL1        0.0500
      8 C          63.0825   88.5456   12.1046 C.2     1  UNL1       -0.0029
      9 C          62.3669   88.4407   10.7905 C.2     1  UNL1       -0.0057
     10 C          62.3614   84.2624    6.0760 C.3     1  UNL1        0.0310
     11 C          61.5758   85.0625    7.0724 C.ar    1  UNL1       -0.0221
     12 C          60.1109   85.3007    6.8552 C.ar    1  UNL1       -0.0085
     13 C          59.3254   86.1008    7.8517 C.ar    1  UNL1       -0.0221
     14 C          57.8604   86.3391    7.6345 C.3     1  UNL1        0.0310
     15 C          60.0048   86.6626    9.0652 C.ar    1  UNL1       -0.0028
     16 C          61.4697   86.4243    9.2824 C.ar    1  UNL1        0.0167
     17 C          62.2552   85.6243    8.2860 C.ar    1  UNL1       -0.0028
     18 C          64.7354   90.7001   14.9987 C.3     1  UNL1        0.0845
     19 C          64.1309   90.1120   16.2391 C.3     1  UNL1        0.0132
     20 C          65.3399   91.2883   13.7583 C.3     1  UNL1        0.0132
     21 C          65.2115   91.8815   15.7909 C.2     1  UNL1        0.2281
     22 O          64.2682   92.5957   16.7130 O.2     1  UNL1       -0.2746
     23 N          67.7892   92.2867   15.1934 N.am    1  UNL1       -0.2809
     24 C          68.2198   93.3549   15.9098 C.3     1  UNL1        0.0933
     25 C          68.5265   93.9975   16.3234 C.3     1  UNL1        0.0200
     26 C          69.4698   93.2833   15.4013 C.3     1  UNL1        0.0034
     27 C          68.9937   92.1020   14.6092 C.3     1  UNL1        0.0199
     28 C          67.5743   91.6347   14.7390 C.3     1  UNL1        0.0753
     29 C          66.6310   92.3488   15.6610 C.3     1  UNL1        0.0199
     30 C          67.1071   93.5302   16.4533 C.3     1  UNL1        0.0034
     31 C          61.9434   89.5889    9.9231 C.3     1  UNL1        0.0393
     32 C          62.8572   90.7636    9.7349 C.3     1  UNL1        0.0062
     33 C          60.6063   89.5627    9.2440 C.3     1  UNL1        0.0730
     34 N          60.4653   90.0844    7.8448 N.3     1  UNL1       -0.2969
     35 H          61.3688   89.9545    7.3896 H       1  UNL1        0.1233
     36 C          59.4308   89.5021    6.9278 C.3     1  UNL1        0.0731
     37 C          58.7196   90.3829    5.9439 C.3     1  UNL1        0.0433
     38 C          59.5043   91.1582    4.9274 C.2     1  UNL1        0.0101
     39 C          58.8284   92.2144    4.1043 C.2     1  UNL1        0.2279
     40 N          59.6131   92.9897    3.0879 N.2     1  UNL1       -0.0301
     41 C          61.0738   92.7087    2.8944 C.2     1  UNL1        0.3914
     42 N          62.0978   93.3065    1.9757 N.2     1  UNL1       -0.0071
     43 C          63.4066   92.6198    2.2310 C.2     1  UNL1        0.3392
     44 N          63.1915   91.5975    3.3075 N.2     1  UNL1       -0.1958
     45 C          61.7497   91.6525    3.7175 C.2     1  UNL1        0.1550
     46 C          60.9650   90.8773    4.7339 C.3     1  UNL1        0.0798
@<TRIPOS>BOND
     1    10    11    1
     2    11    12   ar
     3    12    13   ar
     4    13    14    1
     5    13    15   ar
     6    15    16   ar
     7    16     1    1
     8     1     2    2
     9     2     3    1
    10     3     4    2
    11     4     5    1
    12     5     6    2
    13     6    18    1
    14    18    19    1
    15    18    20    1
    16    18    21    1
    17    21    22    2
    18    21    23   am
    19    23    24    1
    20    24    25    1
    21    25    26    1
    22    26    27    1
    23    27    28    1
    24    28    29    1
    25    29    30    1
    26     6     7    1
    27     7     8    1
    28     8     9    2
    29     9    31    1
    30    31    32    1
    31    31    33    1
    32    33    34    1
    33    34    36    1
    34    36    37    1
    35    37    38    1
    36    38    39    2
    37    39    40    1
    38    40    41    2
    39    41    42    1
    40    42    43    2
    41    43    44    1
    42    44    45    2
    43    45    46    1
    44    16    17   ar
    45    17    11   ar
    46     9     1    1
    47    46    38    1
    48     8     3    1
    49    45    41    1
    50    28    23    1
    51    30    25    1
    52    34    35    1
@<TRIPOS>MOLECULE
*****
 46 52 0 0 0
SMALL
GASTEIGER

@<TRIPOS>ATOM
      1 C          61.6848   86.8097   10.7171 C.2     1  UNL1        0.0770
      2 N          60.8356   85.9958    9.7864 N.2     1  UNL1       -0.2460
      3 C          60.2951   86.9133    8.7300 C.2     1  UNL1        0.0773
      4 C          59.4004   86.6697    7.5510 C.2     1  UNL1        0.0182
      5 C          59.0209   87.8071    6.6498 C.2     1  UNL1       -0.0062
      6 C          59.5361   89.1882    6.9276 C.2     1  UNL1       -0.0322
      7 C          60.4308   89.4318    8.1066 C.3     1  UNL1        0.0500
      8 C          60.8103   88.2944    9.0078 C.2     1  UNL1       -0.0029
      9 C          61.6692   88.2303   10.2359 C.2     1  UNL1       -0.0057
     10 C          63.0948   82.8502   13.7723 C.3     1  UNL1        0.0310
     11 C          63.1255   84.3139   13.4457 C.ar    1  UNL1       -0.0221
     12 C          63.8919   85.2615   14.3202 C.ar    1  UNL1       -0.0085
     13 C          63.9226   86.7252   13.9936 C.ar    1  UNL1       -0.0221
     14 C          64.6890   87.6729   14.8680 C.3     1  UNL1        0.0310
     15 C          63.1869   87.2413   12.7925 C.ar    1  UNL1       -0.0028
     16 C          62.4205   86.2937   11.9181 C.ar    1  UNL1        0.0167
     17 C          62.3898   84.8300   12.2447 C.ar    1  UNL1       -0.0028
     18 C          59.1566   90.3256    6.0263 C.3     1  UNL1        0.0845
     19 C          60.5654   90.8379    6.0796 C.3     1  UNL1        0.0132
     20 C          57.7478   89.8134    5.9730 C.3     1  UNL1        0.0132
     21 C          58.7771   91.4631    5.1251 C.2     1  UNL1        0.2281
     22 O          57.4023   92.0577    5.2061 O.2     1  UNL1       -0.2746
     23 N          60.8932   92.0355    3.5888 N.am    1  UNL1       -0.2809
     24 C          60.5500   93.0640    2.7739 C.3     1  UNL1        0.0933
     25 C          60.3881   93.6863    2.2594 C.3     1  UNL1        0.0200
     26 C          61.7629   93.0917    2.1784 C.3     1  UNL1        0.0034
     27 C          62.1423   91.9542    3.0796 C.3     1  UNL1        0.0199
     28 C          61.1471   91.4114    4.0619 C.3     1  UNL1        0.0753
     29 C          59.7724   92.0059    4.1429 C.3     1  UNL1        0.0199
     30 C          59.3928   93.1434    3.2417 C.3     1  UNL1        0.0034
     31 C          62.3866   89.3844   10.8712 C.3     1  UNL1        0.0393
     32 C          63.4835   90.0869   10.1273 C.3     1  UNL1        0.0062
     33 C          62.0071   89.8359   12.2503 C.3     1  UNL1        0.0730
     34 N          62.7537   90.9613   12.9031 N.3     1  UNL1       -0.2969
     35 H          62.0664   91.5102   13.4195 H       1  UNL1        0.1233
     36 C          63.8748   90.6652   13.8546 C.3     1  UNL1        0.0731
     37 C          64.9167   91.7075   14.1337 C.3     1  UNL1        0.0433
     38 C          65.9724   92.0055   13.1105 C.2     1  UNL1        0.0101
     39 C          67.3948   91.6006   13.3606 C.2     1  UNL1        0.2279
     40 N          68.4504   91.8986   12.3374 N.2     1  UNL1       -0.0301
     41 C          68.0836   92.6015   11.0641 C.2     1  UNL1        0.3914
     42 N          68.9013   93.0259    9.8804 N.2     1  UNL1       -0.0071
     43 C          67.9842   93.6932    8.8988 C.2     1  UNL1        0.3392
     44 N          66.5997   93.6811    9.4757 N.2     1  UNL1       -0.1958
     45 C          66.6611   93.0064   10.8140 C.2     1  UNL1        0.1550
     46 C          65.6055   92.7084   11.8372 C.3     1  UNL1        0.0798
@<TRIPOS>BOND
     1    10    11    1
     2    11    12   ar
     3    12    13   ar
     4    13    14    1
     5    13    15   ar
     6    15    16   ar
     7    16     1    1
     8     1     2    2
     9     2     3    1
    10     3     4    2
    11     4     5    1
    12     5     6    2
    13     6    18    1
    14    18    19    1
    15    18    20    1
    16    18    21    1
    17    21    22    2
    18    21    23   am
    19    23    24    1
    20    24    25    1
    21    25    26    1
    22    26    27    1
    23    27    28    1
    24    28    29    1
    25    29    30    1
    26     6     7    1
    27     7     8    1
    28     8     9    2
    29     9    31    1
    30    31    32    1
    31    31    33    1
    32    33    34    1
    33    34    36    1
    34    36    37    1
    35    37    38    1
    36    38    39    2
    37    39    40    1
    38    40    41    2
    39    41    42    1
    40    42    43    2
    41    43    44    1
    42    44    45    2
    43    45    46    1
    44    16    17   ar
    45    17    11   ar
    46     9     1    1
    47    46    38    1
    48     8     3    1
    49    45    41    1
    50    28    23    1
    51    30    25    1
    52    34    35    1
@<TRIPOS>MOLECULE
*****
 46 52 0 0 0
SMALL
GASTEIGER

@<TRIPOS>ATOM
      1 C          61.6741   86.8539   10.7097 C.2     1  UNL1        0.0770
      2 N          60.8730   86.0195    9.7548 N.2     1  UNL1       -0.2460
      3 C          60.3226   86.9272    8.6951 C.2     1  UNL1        0.0773
      4 C          59.4613   86.6634    7.4957 C.2     1  UNL1        0.0182
      5 C          59.0609   87.7951    6.5964 C.2     1  UNL1       -0.0062
      6 C          59.5217   89.1907    6.8964 C.2     1  UNL1       -0.0322
      7 C          60.3830   89.4545    8.0958 C.3     1  UNL1        0.0500
      8 C          60.7835   88.3228    8.9951 C.2     1  UNL1       -0.0029
      9 C          61.6187   88.2775   10.2402 C.2     1  UNL1       -0.0057
     10 C          63.0351   82.9385   13.8430 C.3     1  UNL1        0.0310
     11 C          63.0831   84.3952   13.4881 C.ar    1  UNL1       -0.0221
     12 C          63.8596   85.3507   14.3448 C.ar    1  UNL1       -0.0085
     13 C          63.9075   86.8073   13.9899 C.ar    1  UNL1       -0.0221
     14 C          64.6840   87.7628   14.8467 C.3     1  UNL1        0.0310
     15 C          63.1790   87.3083   12.7782 C.ar    1  UNL1       -0.0028
     16 C          62.4026   86.3528   11.9214 C.ar    1  UNL1        0.0167
     17 C          62.3546   84.8963   12.2764 C.ar    1  UNL1       -0.0028
     18 C          59.1212   90.3224    5.9970 C.3     1  UNL1        0.0845
     19 C          57.7177   89.7947    5.9581 C.3     1  UNL1        0.0132
     20 C          60.5248   90.8501    6.0360 C.3     1  UNL1        0.0132
     21 C          58.7207   91.4541    5.0977 C.2     1  UNL1        0.2281
     22 O          57.3351   92.0228    5.1794 O.2     1  UNL1       -0.2746
     23 N          60.8260   92.0687    3.5628 N.am    1  UNL1       -0.2809
     24 C          60.4638   93.0920    2.7495 C.3     1  UNL1        0.0933
     25 C          60.2904   93.7120    2.2361 C.3     1  UNL1        0.0200
     26 C          61.6760   93.1433    2.1544 C.3     1  UNL1        0.0034
     27 C          62.0765   92.0116    3.0538 C.3     1  UNL1        0.0199
     28 C          61.0914   91.4486    4.0348 C.3     1  UNL1        0.0753
     29 C          59.7058   92.0172    4.1166 C.3     1  UNL1        0.0199
     30 C          59.3053   93.1489    3.2172 C.3     1  UNL1        0.0034
     31 C          62.2821   89.4499   10.9000 C.3     1  UNL1        0.0393
     32 C          61.8346   89.8974   12.2600 C.3     1  UNL1        0.0062
     33 C          63.3930   90.1749   10.1999 C.3     1  UNL1        0.0730
     34 N          63.2150   91.6081    9.7946 N.3     1  UNL1       -0.2969
     35 H          62.2736   91.8795   10.0782 H       1  UNL1        0.1233
     36 C          64.1463   92.6583   10.3235 C.3     1  UNL1        0.0731
     37 C          65.5390   92.2859   10.7378 C.3     1  UNL1        0.0433
     38 C          65.9187   92.2992   12.1889 C.2     1  UNL1        0.0101
     39 C          64.8725   92.0745   13.2400 C.2     1  UNL1        0.2279
     40 N          65.2522   92.0879   14.6911 N.2     1  UNL1       -0.0301
     41 C          66.6781   92.3260   15.0911 C.2     1  UNL1        0.3914
     42 N          67.3463   92.3947   16.4323 N.2     1  UNL1       -0.0071
     43 C          68.8055   92.6618   16.2101 C.2     1  UNL1        0.3392
     44 N          69.0391   92.7582   14.7315 N.2     1  UNL1       -0.1958
     45 C          67.7243   92.5507   14.0400 C.2     1  UNL1        0.1550
     46 C          67.3446   92.5373   12.5889 C.3     1  UNL1        0.0798
@<TRIPOS>BOND
     1    10    11    1
     2    11    12   ar
     3    12    13   ar
     4    13    14    1
     5    13    15   ar
     6    15    16   ar
     7    16     1    1
     8     1     2    2
     9     2     3    1
    10     3     4    2
    11     4     5    1
    12     5     6    2
    13     6    18    1
    14    18    19    1
    15    18    20    1
    16    18    21    1
    17    21    22    2
    18    21    23   am
    19    23    24    1
    20    24    25    1
    21    25    26    1
    22    26    27    1
    23    27    28    1
    24    28    29    1
    25    29    30    1
    26     6     7    1
    27     7     8    1
    28     8     9    2
    29     9    31    1
    30    31    32    1
    31    31    33    1
    32    33    34    1
    33    34    36    1
    34    36    37    1
    35    37    38    1
    36    38    39    2
    37    39    40    1
    38    40    41    2
    39    41    42    1
    40    42    43    2
    41    43    44    1
    42    44    45    2
    43    45    46    1
    44    16    17   ar
    45    17    11   ar
    46     9     1    1
    47    46    38    1
    48     8     3    1
    49    45    41    1
    50    28    23    1
    51    30    25    1
    52    34    35    1
@<TRIPOS>MOLECULE
*****
 46 52 0 0 0
SMALL
GASTEIGER

@<TRIPOS>ATOM
      1 C          61.6797   86.8849   10.6775 C.2     1  UNL1        0.0770
      2 N          60.8872   86.0463    9.7191 N.2     1  UNL1       -0.2460
      3 C          60.3339   86.9518    8.6589 C.2     1  UNL1        0.0773
      4 C          59.4779   86.6838    7.4566 C.2     1  UNL1        0.0182
      5 C          59.0727   87.8140    6.5576 C.2     1  UNL1       -0.0062
      6 C          59.5233   89.2123    6.8608 C.2     1  UNL1       -0.0322
      7 C          60.3792   89.4803    8.0631 C.3     1  UNL1        0.0500
      8 C          60.7845   88.3500    8.9622 C.2     1  UNL1       -0.0029
      9 C          61.6163   88.3086   10.2097 C.2     1  UNL1       -0.0057
     10 C          64.6290   87.8159   14.8531 C.3     1  UNL1        0.0310
     11 C          63.8825   86.8526   13.9786 C.ar    1  UNL1       -0.0221
     12 C          63.8643   85.3914   14.3172 C.ar    1  UNL1       -0.0085
     13 C          63.1179   84.4281   13.4427 C.ar    1  UNL1       -0.0221
     14 C          63.0996   82.9669   13.7814 C.3     1  UNL1        0.0310
     15 C          62.3897   84.9259   12.2295 C.ar    1  UNL1       -0.0028
     16 C          62.4079   86.3871   11.8908 C.ar    1  UNL1        0.0167
     17 C          63.1543   87.3504   12.7653 C.ar    1  UNL1       -0.0028
     18 C          59.1179   90.3425    5.9617 C.3     1  UNL1        0.0845
     19 C          57.7080   89.8308    5.9542 C.3     1  UNL1        0.0132
     20 C          60.5279   90.8542    5.9693 C.3     1  UNL1        0.0132
     21 C          58.7126   91.4727    5.0627 C.2     1  UNL1        0.2281
     22 O          57.3261   92.0388    5.1481 O.2     1  UNL1       -0.2746
     23 N          60.8120   92.0900    3.5209 N.am    1  UNL1       -0.2809
     24 C          60.4455   93.1119    2.7079 C.3     1  UNL1        0.0933
     25 C          60.2693   93.7311    2.1945 C.3     1  UNL1        0.0200
     26 C          61.6558   93.1650    2.1091 C.3     1  UNL1        0.0034
     27 C          62.0611   92.0349    3.0082 C.3     1  UNL1        0.0199
     28 C          61.0801   91.4707    3.9927 C.3     1  UNL1        0.0753
     29 C          59.6936   92.0368    4.0781 C.3     1  UNL1        0.0199
     30 C          59.2882   93.1670    3.1790 C.3     1  UNL1        0.0034
     31 C          62.2698   89.4846   10.8730 C.3     1  UNL1        0.0393
     32 C          61.7563   89.9831   12.1914 C.3     1  UNL1        0.0062
     33 C          63.4369   90.1621   10.2182 C.3     1  UNL1        0.0730
     34 N          63.3479   91.6111    9.8408 N.3     1  UNL1       -0.2969
     35 H          62.3710   91.8840    9.9482 H       1  UNL1        0.1233
     36 C          64.1656   92.6298   10.5782 C.3     1  UNL1        0.0731
     37 C          65.6598   92.6296   10.4471 C.3     1  UNL1        0.0433
     38 C          66.5197   92.4777   11.6668 C.2     1  UNL1        0.0101
     39 C          67.9242   91.9678   11.5355 C.2     1  UNL1        0.2279
     40 N          68.7841   91.8159   12.7552 N.2     1  UNL1       -0.0301
     41 C          68.2394   92.1737   14.1062 C.2     1  UNL1        0.3914
     42 N          68.8464   92.1292   15.4771 N.2     1  UNL1       -0.0071
     43 C          67.8171   92.6115   16.4557 C.2     1  UNL1        0.3392
     44 N          66.5738   92.9541   15.6896 N.2     1  UNL1       -0.1958
     45 C          66.8348   92.6835   14.2375 C.2     1  UNL1        0.1550
     46 C          65.9750   92.8355   13.0178 C.3     1  UNL1        0.0798
@<TRIPOS>BOND
     1    10    11    1
     2    11    12   ar
     3    12    13   ar
     4    13    14    1
     5    13    15   ar
     6    15    16   ar
     7    16     1    1
     8     1     2    2
     9     2     3    1
    10     3     4    2
    11     4     5    1
    12     5     6    2
    13     6    18    1
    14    18    19    1
    15    18    20    1
    16    18    21    1
    17    21    22    2
    18    21    23   am
    19    23    24    1
    20    24    25    1
    21    25    26    1
    22    26    27    1
    23    27    28    1
    24    28    29    1
    25    29    30    1
    26     6     7    1
    27     7     8    1
    28     8     9    2
    29     9    31    1
    30    31    32    1
    31    31    33    1
    32    33    34    1
    33    34    36    1
    34    36    37    1
    35    37    38    1
    36    38    39    2
    37    39    40    1
    38    40    41    2
    39    41    42    1
    40    42    43    2
    41    43    44    1
    42    44    45    2
    43    45    46    1
    44    16    17   ar
    45    17    11   ar
    46     9     1    1
    47    46    38    1
    48     8     3    1
    49    45    41    1
    50    28    23    1
    51    30    25    1
    52    34    35    1
@<TRIPOS>MOLECULE
*****
 46 52 0 0 0
SMALL
GASTEIGER

@<TRIPOS>ATOM
      1 C          63.1405   83.2783   13.3466 C.2     1  UNL1        0.0770
      2 N          63.1697   83.7380   14.7741 N.2     1  UNL1       -0.2460
      3 C          63.3941   85.2211   14.7790 C.2     1  UNL1        0.0773
      4 C          63.5129   86.2146   15.8965 C.2     1  UNL1        0.0182
      5 C          63.7412   87.6650   15.5895 C.2     1  UNL1       -0.0062
      6 C          63.8507   88.1219   14.1650 C.2     1  UNL1       -0.0322
      7 C          63.7319   87.1284   13.0475 C.3     1  UNL1        0.0500
      8 C          63.5036   85.6780   13.3545 C.2     1  UNL1       -0.0029
      9 C          63.3469   84.4773   12.4692 C.2     1  UNL1       -0.0057
     10 C          62.9695   79.7967    9.4931 C.3     1  UNL1        0.0310
     11 C          62.8546   80.1265   10.9520 C.ar    1  UNL1       -0.0221
     12 C          62.5394   79.0453   11.9427 C.ar    1  UNL1       -0.0085
     13 C          62.4246   79.3752   13.4015 C.ar    1  UNL1       -0.0221
     14 C          62.1094   78.2940   14.3924 C.3     1  UNL1        0.0310
     15 C          62.6250   80.7862   13.8694 C.ar    1  UNL1       -0.0028
     16 C          62.9402   81.8673   12.8787 C.ar    1  UNL1        0.0167
     17 C          63.0550   81.5375   11.4199 C.ar    1  UNL1       -0.0028
     18 C          64.0790   89.5723   13.8580 C.3     1  UNL1        0.0845
     19 C          63.8866   89.2933   12.3968 C.3     1  UNL1        0.0132
     20 C          64.2713   89.8513   15.3192 C.3     1  UNL1        0.0132
     21 C          64.3072   91.0227   13.5510 C.2     1  UNL1        0.2281
     22 O          63.2800   91.7966   12.7790 O.2     1  UNL1       -0.2746
     23 N          66.6706   91.7218   14.5957 N.am    1  UNL1       -0.2809
     24 C          66.8770   93.0333   14.3181 C.3     1  UNL1        0.0933
     25 C          67.0464   93.8261   14.1738 C.3     1  UNL1        0.0200
     26 C          68.0736   93.0522   14.9458 C.3     1  UNL1        0.0034
     27 C          67.8453   91.6018   15.2528 C.3     1  UNL1        0.0199
     28 C          66.5899   90.9253   14.7879 C.3     1  UNL1        0.0753
     29 C          65.5627   91.6992   14.0159 C.3     1  UNL1        0.0199
     30 C          65.7909   93.1496   13.7089 C.3     1  UNL1        0.0034
     31 C          63.3891   84.4758   10.9698 C.3     1  UNL1        0.0393
     32 C          64.3958   83.6292   10.2487 C.3     1  UNL1        0.0062
     33 C          62.4248   85.3209   10.1915 C.3     1  UNL1        0.0730
     34 N          62.7003   85.6411    8.7522 N.3     1  UNL1       -0.2969
     35 H          63.5644   85.1595    8.5037 H       1  UNL1        0.1233
     36 C          61.6910   85.2907    7.6994 C.3     1  UNL1        0.0731
     37 C          60.3692   85.9988    7.6623 C.3     1  UNL1        0.0433
     38 C          60.1648   87.2480    8.4670 C.2     1  UNL1        0.0101
     39 C          60.1122   88.5814    7.7819 C.2     1  UNL1        0.2279
     40 N          59.9078   89.8306    8.5866 N.2     1  UNL1       -0.0301
     41 C          59.7559   89.7466   10.0765 C.2     1  UNL1        0.3914
     42 N          59.5441   90.7984   11.1247 N.2     1  UNL1       -0.0071
     43 C          59.4657   90.1152   12.4577 C.2     1  UNL1        0.3392
     44 N          59.6292   88.6411   12.2334 N.2     1  UNL1       -0.1958
     45 C          59.8085   88.4133   10.7617 C.2     1  UNL1        0.1550
     46 C          60.0129   87.1640    9.9570 C.3     1  UNL1        0.0798
@<TRIPOS>BOND
     1    10    11    1
     2    11    12   ar
     3    12    13   ar
     4    13    14    1
     5    13    15   ar
     6    15    16   ar
     7    16     1    1
     8     1     2    2
     9     2     3    1
    10     3     4    2
    11     4     5    1
    12     5     6    2
    13     6    18    1
    14    18    19    1
    15    18    20    1
    16    18    21    1
    17    21    22    2
    18    21    23   am
    19    23    24    1
    20    24    25    1
    21    25    26    1
    22    26    27    1
    23    27    28    1
    24    28    29    1
    25    29    30    1
    26     6     7    1
    27     7     8    1
    28     8     9    2
    29     9    31    1
    30    31    32    1
    31    31    33    1
    32    33    34    1
    33    34    36    1
    34    36    37    1
    35    37    38    1
    36    38    39    2
    37    39    40    1
    38    40    41    2
    39    41    42    1
    40    42    43    2
    41    43    44    1
    42    44    45    2
    43    45    46    1
    44    16    17   ar
    45    17    11   ar
    46     9     1    1
    47    46    38    1
    48     8     3    1
    49    45    41    1
    50    28    23    1
    51    30    25    1
    52    34    35    1
@<TRIPOS>MOLECULE
*****
 46 52 0 0 0
SMALL
GASTEIGER

@<TRIPOS>ATOM
      1 C          60.0297   88.5040    6.9997 C.2     1  UNL1        0.0770
      2 N          60.1940   87.0935    6.5165 N.2     1  UNL1       -0.2460
      3 C          60.8596   86.3051    7.6052 C.2     1  UNL1        0.0773
      4 C          61.2727   84.8658    7.6931 C.2     1  UNL1        0.0182
      5 C          61.9328   84.3497    8.9372 C.2     1  UNL1       -0.0062
      6 C          62.1799   85.2729   10.0934 C.2     1  UNL1       -0.0322
      7 C          61.7669   86.7122   10.0054 C.3     1  UNL1        0.0500
      8 C          61.1067   87.2283    8.7613 C.2     1  UNL1       -0.0029
      9 C          60.5938   88.5873    8.3871 C.2     1  UNL1       -0.0057
     10 C          55.8093   91.0964    5.4288 C.3     1  UNL1        0.0310
     11 C          57.2999   90.9292    5.4452 C.ar    1  UNL1       -0.0221
     12 C          58.1708   91.8909    4.6925 C.ar    1  UNL1       -0.0085
     13 C          59.6613   91.7236    4.7088 C.ar    1  UNL1       -0.0221
     14 C          60.5323   92.6854    3.9561 C.3     1  UNL1        0.0310
     15 C          60.2809   90.5947    5.4779 C.ar    1  UNL1       -0.0028
     16 C          59.4100   89.6330    6.2306 C.ar    1  UNL1        0.0167
     17 C          57.9195   89.8002    6.2142 C.ar    1  UNL1       -0.0028
     18 C          62.8401   84.7567   11.3375 C.3     1  UNL1        0.0845
     19 C          63.7579   83.9151   10.5013 C.3     1  UNL1        0.0132
     20 C          61.9224   85.5983   12.1737 C.3     1  UNL1        0.0132
     21 C          63.5003   84.2406   12.5815 C.2     1  UNL1        0.2281
     22 O          64.3182   85.1641   13.4350 O.2     1  UNL1       -0.2746
     23 N          62.9056   81.6406   12.8093 N.am    1  UNL1       -0.2809
     24 C          63.5025   81.1738   13.9342 C.3     1  UNL1        0.0933
     25 C          63.8454   80.8452   14.6069 C.3     1  UNL1        0.0200
     26 C          63.0275   79.9217   13.7534 C.3     1  UNL1        0.0034
     27 C          62.3674   80.4378   12.5094 C.3     1  UNL1        0.0199
     28 C          62.5250   81.8774   12.1188 C.3     1  UNL1        0.0753
     29 C          63.3427   82.8009   12.9722 C.3     1  UNL1        0.0199
     30 C          64.0030   82.2848   14.2163 C.3     1  UNL1        0.0034
     31 C          60.6373   89.8141    9.2490 C.3     1  UNL1        0.0393
     32 C          59.4252   90.2242   10.0319 C.3     1  UNL1        0.0062
     33 C          61.8928   90.6310    9.3281 C.3     1  UNL1        0.0730
     34 N          62.9384   90.3021   10.3521 N.3     1  UNL1       -0.2969
     35 H          63.7642   90.8528   10.1171 H       1  UNL1        0.1233
     36 C          62.6622   90.5354   11.8078 C.3     1  UNL1        0.0731
     37 C          63.5107   89.8673   12.8488 C.3     1  UNL1        0.0433
     38 C          64.3289   90.6959   13.7943 C.2     1  UNL1        0.0101
     39 C          63.8530   90.9209   15.1989 C.2     1  UNL1        0.2279
     40 N          64.6711   91.7494   16.1444 N.2     1  UNL1       -0.0301
     41 C          65.9654   92.3530   15.6854 C.2     1  UNL1        0.3914
     42 N          66.9782   93.2088   16.3866 N.2     1  UNL1       -0.0071
     43 C          68.0802   93.5128   15.4154 C.2     1  UNL1        0.3392
     44 N          67.7484   92.8447   14.1140 N.2     1  UNL1       -0.1958
     45 C          66.4414   92.1279   14.2809 C.2     1  UNL1        0.1550
     46 C          65.6232   91.2994   13.3354 C.3     1  UNL1        0.0798
@<TRIPOS>BOND
     1    10    11    1
     2    11    12   ar
     3    12    13   ar
     4    13    14    1
     5    13    15   ar
     6    15    16   ar
     7    16     1    1
     8     1     2    2
     9     2     3    1
    10     3     4    2
    11     4     5    1
    12     5     6    2
    13     6    18    1
    14    18    19    1
    15    18    20    1
    16    18    21    1
    17    21    22    2
    18    21    23   am
    19    23    24    1
    20    24    25    1
    21    25    26    1
    22    26    27    1
    23    27    28    1
    24    28    29    1
    25    29    30    1
    26     6     7    1
    27     7     8    1
    28     8     9    2
    29     9    31    1
    30    31    32    1
    31    31    33    1
    32    33    34    1
    33    34    36    1
    34    36    37    1
    35    37    38    1
    36    38    39    2
    37    39    40    1
    38    40    41    2
    39    41    42    1
    40    42    43    2
    41    43    44    1
    42    44    45    2
    43    45    46    1
    44    16    17   ar
    45    17    11   ar
    46     9     1    1
    47    46    38    1
    48     8     3    1
    49    45    41    1
    50    28    23    1
    51    30    25    1
    52    34    35    1
@<TRIPOS>MOLECULE
*****
 46 52 0 0 0
SMALL
GASTEIGER

@<TRIPOS>ATOM
      1 C          59.9489   88.5395    6.9582 C.2     1  UNL1        0.0770
      2 N          60.0552   87.1135    6.5052 N.2     1  UNL1       -0.2460
      3 C          60.7303   86.3308    7.5922 C.2     1  UNL1        0.0773
      4 C          61.1020   84.8819    7.7031 C.2     1  UNL1        0.0182
      5 C          61.7846   84.3752    8.9389 C.2     1  UNL1       -0.0062
      6 C          62.0955   85.3175   10.0638 C.2     1  UNL1       -0.0322
      7 C          61.7238   86.7664    9.9530 C.3     1  UNL1        0.0500
      8 C          61.0411   87.2731    8.7172 C.2     1  UNL1       -0.0029
      9 C          60.5582   88.6381    8.3253 C.2     1  UNL1       -0.0057
     10 C          60.4914   92.6917    3.8817 C.3     1  UNL1        0.0310
     11 C          59.6113   91.7447    4.6425 C.ar    1  UNL1       -0.0221
     12 C          58.1226   91.9268    4.6257 C.ar    1  UNL1       -0.0085
     13 C          57.2426   90.9799    5.3865 C.ar    1  UNL1       -0.0221
     14 C          55.7537   91.1620    5.3697 C.3     1  UNL1        0.0310
     15 C          57.8513   89.8508    6.1640 C.ar    1  UNL1       -0.0028
     16 C          59.3401   89.6686    6.1807 C.ar    1  UNL1        0.0167
     17 C          60.2201   90.6156    5.4200 C.ar    1  UNL1       -0.0028
     18 C          62.7782   84.8107   11.2997 C.3     1  UNL1        0.0845
     19 C          61.8463   85.6242   12.1480 C.3     1  UNL1        0.0132
     20 C          63.7101   83.9972   10.4514 C.3     1  UNL1        0.0132
     21 C          63.4608   84.3040   12.5355 C.2     1  UNL1        0.2281
     22 O          64.2779   85.2385   13.3777 O.2     1  UNL1       -0.2746
     23 N          62.9018   81.6969   12.7728 N.am    1  UNL1       -0.2809
     24 C          63.5190   81.2388   13.8903 C.3     1  UNL1        0.0933
     25 C          63.8746   80.9150   14.5587 C.3     1  UNL1        0.0200
     26 C          63.0575   79.9806   13.7166 C.3     1  UNL1        0.0034
     27 C          62.3749   80.4873   12.4808 C.3     1  UNL1        0.0199
     28 C          62.5093   81.9284   12.0871 C.3     1  UNL1        0.0753
     29 C          63.3264   82.8629   12.9292 C.3     1  UNL1        0.0199
     30 C          64.0090   82.3562   14.1650 C.3     1  UNL1        0.0034
     31 C          60.6658   89.8832    9.1550 C.3     1  UNL1        0.0393
     32 C          61.7093   90.9115    8.8326 C.3     1  UNL1        0.0062
     33 C          59.7300   90.1000   10.3070 C.3     1  UNL1        0.0730
     34 N          60.2551   90.6202   11.6122 N.3     1  UNL1       -0.2969
     35 H          59.4434   90.8578   12.1824 H       1  UNL1        0.1233
     36 C          61.1429   89.7587   12.4604 C.3     1  UNL1        0.0731
     37 C          62.5733   89.5386   12.0660 C.3     1  UNL1        0.0433
     38 C          63.5804   90.6341   12.2548 C.2     1  UNL1        0.0101
     39 C          64.0855   90.9599   13.6290 C.2     1  UNL1        0.2279
     40 N          65.0926   92.0555   13.8178 N.2     1  UNL1       -0.0301
     41 C          65.5945   92.8252   12.6323 C.2     1  UNL1        0.3914
     42 N          66.5792   93.9501   12.5097 N.2     1  UNL1       -0.0071
     43 C          66.6827   94.3195   11.0596 C.2     1  UNL1        0.3392
     44 N          65.7619   93.4230   10.2860 N.2     1  UNL1       -0.1958
     45 C          65.0894   92.4994   11.2580 C.2     1  UNL1        0.1550
     46 C          64.0823   91.4039   11.0692 C.3     1  UNL1        0.0798
@<TRIPOS>BOND
     1    10    11    1
     2    11    12   ar
     3    12    13   ar
     4    13    14    1
     5    13    15   ar
     6    15    16   ar
     7    16     1    1
     8     1     2    2
     9     2     3    1
    10     3     4    2
    11     4     5    1
    12     5     6    2
    13     6    18    1
    14    18    19    1
    15    18    20    1
    16    18    21    1
    17    21    22    2
    18    21    23   am
    19    23    24    1
    20    24    25    1
    21    25    26    1
    22    26    27    1
    23    27    28    1
    24    28    29    1
    25    29    30    1
    26     6     7    1
    27     7     8    1
    28     8     9    2
    29     9    31    1
    30    31    32    1
    31    31    33    1
    32    33    34    1
    33    34    36    1
    34    36    37    1
    35    37    38    1
    36    38    39    2
    37    39    40    1
    38    40    41    2
    39    41    42    1
    40    42    43    2
    41    43    44    1
    42    44    45    2
    43    45    46    1
    44    16    17   ar
    45    17    11   ar
    46     9     1    1
    47    46    38    1
    48     8     3    1
    49    45    41    1
    50    28    23    1
    51    30    25    1
    52    34    35    1
@<TRIPOS>MOLECULE
*****
 46 52 0 0 0
SMALL
GASTEIGER

@<TRIPOS>ATOM
      1 C          62.7245   83.7607   13.9286 C.2     1  UNL1        0.0770
      2 N          63.0644   84.2061   15.3201 N.2     1  UNL1       -0.2460
      3 C          63.4194   85.6625   15.2669 C.2     1  UNL1        0.0773
      4 C          63.8368   86.6334   16.3314 C.2     1  UNL1        0.0182
      5 C          64.1338   88.0590   15.9716 C.2     1  UNL1       -0.0062
      6 C          64.0134   88.5137   14.5472 C.2     1  UNL1       -0.0322
      7 C          63.5960   87.5428   13.4827 C.3     1  UNL1        0.0500
      8 C          63.2990   86.1173   13.8426 C.2     1  UNL1       -0.0029
      9 C          62.8695   84.9419   13.0155 C.2     1  UNL1       -0.0057
     10 C          63.2690   79.6347   10.8174 C.3     1  UNL1        0.0310
     11 C          62.5843   80.3141   11.9662 C.ar    1  UNL1       -0.0221
     12 C          61.4872   79.6099   12.7081 C.ar    1  UNL1       -0.0085
     13 C          60.8026   80.2893   13.8568 C.ar    1  UNL1       -0.0221
     14 C          59.7054   79.5851   14.5988 C.3     1  UNL1        0.0310
     15 C          61.2150   81.6729   14.2637 C.ar    1  UNL1       -0.0028
     16 C          62.3121   82.3771   13.5218 C.ar    1  UNL1        0.0167
     17 C          62.9967   81.6977   12.3731 C.ar    1  UNL1       -0.0028
     18 C          64.3103   89.9393   14.1874 C.3     1  UNL1        0.0845
     19 C          64.4265   89.5506   12.7434 C.3     1  UNL1        0.0132
     20 C          64.1942   90.3280   15.6315 C.3     1  UNL1        0.0132
     21 C          64.6073   91.3649   13.8276 C.2     1  UNL1        0.2281
     22 O          63.6546   92.1338   12.9608 O.2     1  UNL1       -0.2746
     23 N          66.9296   92.0361   14.9774 N.am    1  UNL1       -0.2809
     24 C          67.1982   93.3251   14.6520 C.3     1  UNL1        0.0933
     25 C          67.4036   94.1041   14.4815 C.3     1  UNL1        0.0200
     26 C          68.3564   93.3352   15.3483 C.3     1  UNL1        0.0034
     27 C          68.0594   91.9097   15.7081 C.3     1  UNL1        0.0199
     28 C          66.8097   91.2529   15.2012 C.3     1  UNL1        0.0753
     29 C          65.8570   92.0217   14.3345 C.3     1  UNL1        0.0199
     30 C          66.1539   93.4473   13.9746 C.3     1  UNL1        0.0034
     31 C          62.6276   84.9468   11.5352 C.3     1  UNL1        0.0393
     32 C          63.4838   84.1088   10.6324 C.3     1  UNL1        0.0062
     33 C          61.5295   85.7896   10.9574 C.3     1  UNL1        0.0730
     34 N          60.8550   86.8269   11.8054 N.3     1  UNL1       -0.2969
     35 H          61.3650   86.8628   12.6880 H       1  UNL1        0.1233
     36 C          60.7409   88.2394   11.3135 C.3     1  UNL1        0.0731
     37 C          60.2589   88.5114    9.9193 C.3     1  UNL1        0.0433
     38 C          60.3420   87.4386    8.8743 C.2     1  UNL1        0.0101
     39 C          59.1019   86.9896    8.1599 C.2     1  UNL1        0.2279
     40 N          59.1850   85.9168    7.1149 N.2     1  UNL1       -0.0301
     41 C          60.5084   85.2928    6.7842 C.2     1  UNL1        0.3914
     42 N          60.8975   84.2224    5.8081 N.2     1  UNL1       -0.0071
     43 C          62.3781   84.0098    5.9192 C.2     1  UNL1        0.3392
     44 N          62.9042   84.9488    6.9640 N.2     1  UNL1       -0.1958
     45 C          61.7486   85.7418    7.4986 C.2     1  UNL1        0.1550
     46 C          61.6654   86.8146    8.5436 C.3     1  UNL1        0.0798
@<TRIPOS>BOND
     1    10    11    1
     2    11    12   ar
     3    12    13   ar
     4    13    14    1
     5    13    15   ar
     6    15    16   ar
     7    16     1    1
     8     1     2    2
     9     2     3    1
    10     3     4    2
    11     4     5    1
    12     5     6    2
    13     6    18    1
    14    18    19    1
    15    18    20    1
    16    18    21    1
    17    21    22    2
    18    21    23   am
    19    23    24    1
    20    24    25    1
    21    25    26    1
    22    26    27    1
    23    27    28    1
    24    28    29    1
    25    29    30    1
    26     6     7    1
    27     7     8    1
    28     8     9    2
    29     9    31    1
    30    31    32    1
    31    31    33    1
    32    33    34    1
    33    34    36    1
    34    36    37    1
    35    37    38    1
    36    38    39    2
    37    39    40    1
    38    40    41    2
    39    41    42    1
    40    42    43    2
    41    43    44    1
    42    44    45    2
    43    45    46    1
    44    16    17   ar
    45    17    11   ar
    46     9     1    1
    47    46    38    1
    48     8     3    1
    49    45    41    1
    50    28    23    1
    51    30    25    1
    52    34    35    1
@<TRIPOS>MOLECULE
*****
 46 52 0 0 0
SMALL
GASTEIGER

@<TRIPOS>ATOM
      1 C          62.3477   83.7227   14.5335 C.2     1  UNL1        0.0770
      2 N          62.0344   84.3436   15.8626 N.2     1  UNL1       -0.2460
      3 C          62.6108   85.7283   15.8748 C.2     1  UNL1        0.0773
      4 C          62.6124   86.8056   16.9185 C.2     1  UNL1        0.0182
      5 C          63.2837   88.1180   16.6407 C.2     1  UNL1       -0.0062
      6 C          63.9532   88.3530   15.3191 C.2     1  UNL1       -0.0322
      7 C          63.9515   87.2757   14.2754 C.3     1  UNL1        0.0500
      8 C          63.2803   85.9634   14.5532 C.2     1  UNL1       -0.0029
      9 C          63.1177   84.7238   13.7243 C.2     1  UNL1       -0.0057
     10 C          63.3200   79.4529   11.7364 C.3     1  UNL1        0.0310
     11 C          62.4453   80.2081   12.6928 C.ar    1  UNL1       -0.0221
     12 C          61.1821   79.5837   13.2070 C.ar    1  UNL1       -0.0085
     13 C          60.3075   80.3388   14.1633 C.ar    1  UNL1       -0.0221
     14 C          59.0442   79.7144   14.6775 C.3     1  UNL1        0.0310
     15 C          60.6960   81.7185   14.6055 C.ar    1  UNL1       -0.0028
     16 C          61.9591   82.3430   14.0913 C.ar    1  UNL1        0.0167
     17 C          62.8338   81.5878   13.1350 C.ar    1  UNL1       -0.0028
     18 C          64.6244   89.6654   15.0413 C.3     1  UNL1        0.0845
     19 C          65.8441   88.9390   14.5569 C.3     1  UNL1        0.0132
     20 C          63.4048   90.3918   15.5257 C.3     1  UNL1        0.0132
     21 C          65.2957   90.9777   14.7635 C.2     1  UNL1        0.2281
     22 O          66.0886   91.6574   15.8403 O.2     1  UNL1       -0.2746
     23 N          64.7668   91.6506   12.2271 N.am    1  UNL1       -0.2809
     24 C          65.3738   92.8373   11.9759 C.3     1  UNL1        0.0933
     25 C          65.7239   93.5555   11.7765 C.3     1  UNL1        0.0200
     26 C          64.9310   92.8758   10.6997 C.3     1  UNL1        0.0034
     27 C          64.2598   91.5635   10.9775 C.3     1  UNL1        0.0199
     28 C          64.3813   90.9308   12.3321 C.3     1  UNL1        0.0753
     29 C          65.1741   91.6104   13.4089 C.3     1  UNL1        0.0199
     30 C          65.8454   92.9228   13.1311 C.3     1  UNL1        0.0034
     31 C          63.6344   84.5210   12.3308 C.3     1  UNL1        0.0393
     32 C          65.0502   84.0753   12.1133 C.3     1  UNL1        0.0062
     33 C          62.7356   84.7638   11.1548 C.3     1  UNL1        0.0730
     34 N          63.1049   84.2249    9.8046 N.3     1  UNL1       -0.2969
     35 H          62.4632   83.4566    9.6086 H       1  UNL1        0.1233
     36 C          63.0811   85.1256    8.6054 C.3     1  UNL1        0.0731
     37 C          61.7748   85.6496    8.0867 C.3     1  UNL1        0.0433
     38 C          61.2005   86.9177    8.6453 C.2     1  UNL1        0.0101
     39 C          60.2347   87.7263    7.8308 C.2     1  UNL1        0.2279
     40 N          59.6604   88.9944    8.3894 N.2     1  UNL1       -0.0301
     41 C          60.0519   89.4540    9.7625 C.2     1  UNL1        0.3914
     42 N          59.6531   90.6525   10.5715 N.2     1  UNL1       -0.0071
     43 C          60.3724   90.5847   11.8860 C.2     1  UNL1        0.3392
     44 N          61.2157   89.3443   11.8894 N.2     1  UNL1       -0.1958
     45 C          61.0177   88.6454   10.5770 C.2     1  UNL1        0.1550
     46 C          61.5920   87.3773   10.0185 C.3     1  UNL1        0.0798
@<TRIPOS>BOND
     1    10    11    1
     2    11    12   ar
     3    12    13   ar
     4    13    14    1
     5    13    15   ar
     6    15    16   ar
     7    16     1    1
     8     1     2    2
     9     2     3    1
    10     3     4    2
    11     4     5    1
    12     5     6    2
    13     6    18    1
    14    18    19    1
    15    18    20    1
    16    18    21    1
    17    21    22    2
    18    21    23   am
    19    23    24    1
    20    24    25    1
    21    25    26    1
    22    26    27    1
    23    27    28    1
    24    28    29    1
    25    29    30    1
    26     6     7    1
    27     7     8    1
    28     8     9    2
    29     9    31    1
    30    31    32    1
    31    31    33    1
    32    33    34    1
    33    34    36    1
    34    36    37    1
    35    37    38    1
    36    38    39    2
    37    39    40    1
    38    40    41    2
    39    41    42    1
    40    42    43    2
    41    43    44    1
    42    44    45    2
    43    45    46    1
    44    16    17   ar
    45    17    11   ar
    46     9     1    1
    47    46    38    1
    48     8     3    1
    49    45    41    1
    50    28    23    1
    51    30    25    1
    52    34    35    1
