@<TRIPOS>MOLECULE
*****
 24 26 0 0 0
SMALL
GASTEIGER

@<TRIPOS>ATOM
      1 C          64.1941   91.0841   12.9731 C.ar    1  UNL1        0.1386
      2 C          63.8163   89.6973   13.4022 C.ar    1  UNL1        0.0369
      3 C          63.0716   88.7978   12.4608 C.ar    1  UNL1        0.0032
      4 C          62.7047   89.2851   11.0904 C.ar    1  UNL1        0.0016
      5 C          63.0825   90.6718   10.6614 C.ar    1  UNL1        0.0032
      6 C          63.8273   91.5713   11.6028 C.ar    1  UNL1        0.0369
      7 C          61.9600   88.3855   10.1490 C.ar    1  UNL1        0.0175
      8 C          62.2366   86.9112   10.1438 C.ar    1  UNL1        0.0064
      9 C          61.4919   86.0116    9.2024 C.ar    1  UNL1        0.0608
     10 C          60.4705   86.5864    8.2662 C.ar    1  UNL1        0.2610
     11 O          59.7258   85.6869    7.3248 O.2     1  UNL1       -0.2670
     12 N          60.1939   88.0607    8.2714 N.ar    1  UNL1       -0.2922
     13 C          59.1725   88.6354    7.3352 C.3     1  UNL1        0.1336
     14 C          60.9386   88.9602    9.2128 C.ar    1  UNL1        0.0783
     15 O          64.9389   91.9836   13.9146 O.3     1  UNL1       -0.4754
     16 C          66.3190   91.6139   14.3711 C.3     1  UNL1        0.2068
     17 C          67.5170   92.1202   13.6237 C.3     1  UNL1        0.0646
     18 C          67.5923   91.9649   12.1337 C.3     1  UNL1        0.0759
     19 C          68.5317   92.3836    9.0367 C.3     1  UNL1        0.0173
     20 C          67.6330   93.2969    9.8167 C.3     1  UNL1        0.0576
     21 C          67.0083   94.5629    9.3099 C.3     1  UNL1        0.0174
     22 C          66.1903   95.1530   10.4203 C.3     1  UNL1        0.0187
     23 C          66.3096   94.2515   11.6133 C.3     1  UNL1        0.0721
     24 N          67.2012   93.1044   11.2402 N.3     1  UNL1       -0.2738
@<TRIPOS>BOND
     1    20    19    1
     2    20    21    1
     3    21    22    1
     4    22    23    1
     5    23    24    1
     6    24    18    1
     7    18    17    1
     8    17    16    1
     9    16    15    1
    10    15     1    1
    11     1     2   ar
    12     2     3   ar
    13     3     4   ar
    14     4     7    1
    15     7     8   ar
    16     8     9   ar
    17     9    10   ar
    18    10    11    2
    19    10    12   ar
    20    12    13    1
    21    12    14   ar
    22     4     5   ar
    23     5     6   ar
    24    24    20    1
    25     6     1   ar
    26    14     7   ar
@<TRIPOS>MOLECULE
*****
 24 26 0 0 0
SMALL
GASTEIGER

@<TRIPOS>ATOM
      1 C          63.7860   89.9565   13.3650 C.ar    1  UNL1        0.1386
      2 C          63.1431   89.1156   12.3022 C.ar    1  UNL1        0.0369
      3 C          63.1314   87.6214   12.4330 C.ar    1  UNL1        0.0032
      4 C          63.7626   86.9681   13.6267 C.ar    1  UNL1        0.0016
      5 C          64.4055   87.8089   14.6895 C.ar    1  UNL1        0.0032
      6 C          64.4172   89.3032   14.5586 C.ar    1  UNL1        0.0369
      7 C          63.7509   85.4738   13.7575 C.ar    1  UNL1        0.0175
      8 C          64.1293   84.8319   15.0593 C.ar    1  UNL1        0.0064
      9 C          64.1176   83.3376   15.1901 C.ar    1  UNL1        0.0608
     10 C          63.7275   82.4853   14.0190 C.ar    1  UNL1        0.2610
     11 O          63.7157   80.9911   14.1498 O.2     1  UNL1       -0.2670
     12 N          63.3490   83.1272   12.7172 N.ar    1  UNL1       -0.2922
     13 C          62.9589   82.2749   11.5461 C.3     1  UNL1        0.1336
     14 C          63.3608   84.6215   12.5864 C.ar    1  UNL1        0.0783
     15 O          63.7977   91.4508   13.2342 O.3     1  UNL1       -0.4754
     16 C          64.7545   92.1133   12.2879 C.3     1  UNL1        0.2068
     17 C          66.1437   92.4522   12.7410 C.3     1  UNL1        0.0646
     18 C          67.2611   92.5258   11.7430 C.3     1  UNL1        0.0759
     19 C          68.7032   92.3858    8.8189 C.3     1  UNL1        0.0173
     20 C          67.9404   93.5535    9.3708 C.3     1  UNL1        0.0576
     21 C          67.7066   94.8619    8.6755 C.3     1  UNL1        0.0174
     22 C          66.8992   95.7349    9.5898 C.3     1  UNL1        0.0187
     23 C          66.6340   94.9661   10.8502 C.3     1  UNL1        0.0721
     24 N          67.2775   93.6179   10.7148 N.3     1  UNL1       -0.2738
@<TRIPOS>BOND
     1    20    19    1
     2    20    21    1
     3    21    22    1
     4    22    23    1
     5    23    24    1
     6    24    18    1
     7    18    17    1
     8    17    16    1
     9    16    15    1
    10    15     1    1
    11     1     2   ar
    12     2     3   ar
    13     3     4   ar
    14     4     7    1
    15     7     8   ar
    16     8     9   ar
    17     9    10   ar
    18    10    11    2
    19    10    12   ar
    20    12    13    1
    21    12    14   ar
    22     4     5   ar
    23     5     6   ar
    24    24    20    1
    25     6     1   ar
    26    14     7   ar
@<TRIPOS>MOLECULE
*****
 24 26 0 0 0
SMALL
GASTEIGER

@<TRIPOS>ATOM
      1 C          64.2040   90.7005   13.4656 C.ar    1  UNL1        0.1386
      2 C          63.4302   90.2624   12.2576 C.ar    1  UNL1        0.0369
      3 C          63.1245   88.8087   12.0495 C.ar    1  UNL1        0.0032
      4 C          63.5926   87.7932   13.0493 C.ar    1  UNL1        0.0016
      5 C          64.3664   88.2314   14.2573 C.ar    1  UNL1        0.0032
      6 C          64.6721   89.6851   14.4654 C.ar    1  UNL1        0.0369
      7 C          63.2869   86.3395   12.8412 C.ar    1  UNL1        0.0175
      8 C          62.6000   85.8898   11.5858 C.ar    1  UNL1        0.0064
      9 C          62.2943   84.4361   11.3777 C.ar    1  UNL1        0.0608
     10 C          62.6755   83.4321   12.4249 C.ar    1  UNL1        0.2610
     11 O          62.3698   81.9784   12.2168 O.2     1  UNL1       -0.2670
     12 N          63.3624   83.8818   13.6803 N.ar    1  UNL1       -0.2922
     13 C          63.7436   82.8778   14.7275 C.3     1  UNL1        0.1336
     14 C          63.6681   85.3355   13.8884 C.ar    1  UNL1        0.0783
     15 O          64.5097   92.1543   13.6737 O.3     1  UNL1       -0.4754
     16 C          65.9003   92.5838   14.0365 C.3     1  UNL1        0.2068
     17 C          67.0231   92.3923   13.0603 C.3     1  UNL1        0.0646
     18 C          66.7392   92.3588   11.5879 C.3     1  UNL1        0.0759
     19 C          68.5720   92.4937    8.8912 C.3     1  UNL1        0.0173
     20 C          67.8272   93.6397    9.5093 C.3     1  UNL1        0.0576
     21 C          67.7942   95.0488    8.9963 C.3     1  UNL1        0.0174
     22 C          66.9312   95.8578    9.9189 C.3     1  UNL1        0.0187
     23 C          66.4310   94.9486   11.0019 C.3     1  UNL1        0.0721
     24 N          66.9848   93.5777   10.7488 N.3     1  UNL1       -0.2738
@<TRIPOS>BOND
     1    20    19    1
     2    20    21    1
     3    21    22    1
     4    22    23    1
     5    23    24    1
     6    24    18    1
     7    18    17    1
     8    17    16    1
     9    16    15    1
    10    15     1    1
    11     1     2   ar
    12     2     3   ar
    13     3     4   ar
    14     4     7    1
    15     7     8   ar
    16     8     9   ar
    17     9    10   ar
    18    10    11    2
    19    10    12   ar
    20    12    13    1
    21    12    14   ar
    22     4     5   ar
    23     5     6   ar
    24    24    20    1
    25     6     1   ar
    26    14     7   ar
@<TRIPOS>MOLECULE
*****
 24 26 0 0 0
SMALL
GASTEIGER

@<TRIPOS>ATOM
      1 C          63.2740   87.1275   16.2507 C.ar    1  UNL1        0.1386
      2 C          64.0734   86.9898   14.9890 C.ar    1  UNL1        0.0369
      3 C          64.6160   88.2112   14.3079 C.ar    1  UNL1        0.0032
      4 C          64.3590   89.5702   14.8885 C.ar    1  UNL1        0.0016
      5 C          63.5595   89.7078   16.1502 C.ar    1  UNL1        0.0032
      6 C          63.0170   88.4865   16.8313 C.ar    1  UNL1        0.0369
      7 C          64.9016   90.7916   14.2074 C.ar    1  UNL1        0.0175
      8 C          64.4443   91.1437   12.8229 C.ar    1  UNL1        0.0064
      9 C          64.9868   92.3651   12.1418 C.ar    1  UNL1        0.0608
     10 C          65.9867   93.2344   12.8452 C.ar    1  UNL1        0.2610
     11 O          66.5292   94.4557   12.1641 O.2     1  UNL1       -0.2670
     12 N          66.4440   92.8822   14.2297 N.ar    1  UNL1       -0.2922
     13 C          67.4438   93.7514   14.9332 C.3     1  UNL1        0.1336
     14 C          65.9014   91.6608   14.9108 C.ar    1  UNL1        0.0783
     15 O          62.7314   85.9061   16.9318 O.3     1  UNL1       -0.4754
     16 C          62.0340   84.8475   16.1299 C.3     1  UNL1        0.2068
     17 C          62.8127   83.6911   15.5764 C.3     1  UNL1        0.0646
     18 C          62.1935   82.7949   14.5452 C.3     1  UNL1        0.0759
     19 C          62.6076   80.1678   12.6541 C.3     1  UNL1        0.0173
     20 C          62.9086   81.5864   12.2708 C.3     1  UNL1        0.0576
     21 C          63.4527   82.0466   10.9509 C.3     1  UNL1        0.0174
     22 C          63.5987   83.5385   11.0043 C.3     1  UNL1        0.0187
     23 C          63.1447   84.0004   12.3573 C.3     1  UNL1        0.0721
     24 N          62.7182   82.7940   13.1400 N.3     1  UNL1       -0.2738
@<TRIPOS>BOND
     1    20    19    1
     2    20    21    1
     3    21    22    1
     4    22    23    1
     5    23    24    1
     6    24    18    1
     7    18    17    1
     8    17    16    1
     9    16    15    1
    10    15     1    1
    11     1     2   ar
    12     2     3   ar
    13     3     4   ar
    14     4     7    1
    15     7     8   ar
    16     8     9   ar
    17     9    10   ar
    18    10    11    2
    19    10    12   ar
    20    12    13    1
    21    12    14   ar
    22     4     5   ar
    23     5     6   ar
    24    24    20    1
    25     6     1   ar
    26    14     7   ar
@<TRIPOS>MOLECULE
*****
 24 26 0 0 0
SMALL
GASTEIGER

@<TRIPOS>ATOM
      1 C          62.8466   89.4210   11.7936 C.ar    1  UNL1        0.1386
      2 C          63.5223   88.7081   12.9272 C.ar    1  UNL1        0.0369
      3 C          63.5307   87.2088   12.9715 C.ar    1  UNL1        0.0032
      4 C          62.8635   86.4225   11.8822 C.ar    1  UNL1        0.0016
      5 C          62.1879   87.1354   10.7486 C.ar    1  UNL1        0.0032
      6 C          62.1794   88.6347   10.7043 C.ar    1  UNL1        0.0369
      7 C          62.8720   84.9231   11.9266 C.ar    1  UNL1        0.0175
      8 C          63.3057   84.1396   10.7233 C.ar    1  UNL1        0.0064
      9 C          63.3142   82.6402   10.7676 C.ar    1  UNL1        0.0608
     10 C          62.8889   81.9244   12.0153 C.ar    1  UNL1        0.2610
     11 O          62.8973   80.4251   12.0597 O.2     1  UNL1       -0.2670
     12 N          62.4551   82.7080   13.2187 N.ar    1  UNL1       -0.2922
     13 C          62.0298   81.9922   14.4664 C.3     1  UNL1        0.1336
     14 C          62.4467   84.2073   13.1743 C.ar    1  UNL1        0.0783
     15 O          62.8382   90.9204   11.7492 O.3     1  UNL1       -0.4754
     16 C          64.0939   91.6678   11.4112 C.3     1  UNL1        0.2068
     17 C          65.1623   91.8473   12.4488 C.3     1  UNL1        0.0646
     18 C          66.1502   92.9689   12.3219 C.3     1  UNL1        0.0759
     19 C          65.9403   95.5117   10.2874 C.3     1  UNL1        0.0173
     20 C          66.8277   94.3149   10.1142 C.3     1  UNL1        0.0576
     21 C          67.7745   94.0768    8.9754 C.3     1  UNL1        0.0174
     22 C          68.4562   92.7607    9.2067 C.3     1  UNL1        0.0187
     23 C          67.9307   92.1856   10.4885 C.3     1  UNL1        0.0721
     24 N          66.9242   93.1461   11.0493 N.3     1  UNL1       -0.2738
@<TRIPOS>BOND
     1    20    19    1
     2    20    21    1
     3    21    22    1
     4    22    23    1
     5    23    24    1
     6    24    18    1
     7    18    17    1
     8    17    16    1
     9    16    15    1
    10    15     1    1
    11     1     2   ar
    12     2     3   ar
    13     3     4   ar
    14     4     7    1
    15     7     8   ar
    16     8     9   ar
    17     9    10   ar
    18    10    11    2
    19    10    12   ar
    20    12    13    1
    21    12    14   ar
    22     4     5   ar
    23     5     6   ar
    24    24    20    1
    25     6     1   ar
    26    14     7   ar
@<TRIPOS>MOLECULE
*****
 24 26 0 0 0
SMALL
GASTEIGER

@<TRIPOS>ATOM
      1 C          61.7688   88.7314   10.3155 C.ar    1  UNL1        0.1386
      2 C          62.3010   88.2825   11.6441 C.ar    1  UNL1        0.0369
      3 C          63.2364   89.1662   12.4148 C.ar    1  UNL1        0.0032
      4 C          63.6397   90.4989   11.8568 C.ar    1  UNL1        0.0016
      5 C          63.1075   90.9478   10.5282 C.ar    1  UNL1        0.0032
      6 C          62.1721   90.0641    9.7576 C.ar    1  UNL1        0.0369
      7 C          64.5752   91.3827   12.6275 C.ar    1  UNL1        0.0175
      8 C          65.0235   90.9826   14.0019 C.ar    1  UNL1        0.0064
      9 C          65.9589   91.8664   14.7726 C.ar    1  UNL1        0.0608
     10 C          66.4461   93.1502   14.1688 C.ar    1  UNL1        0.2610
     11 O          67.3815   94.0339   14.9394 O.2     1  UNL1       -0.2670
     12 N          65.9978   93.5502   12.7943 N.ar    1  UNL1       -0.2922
     13 C          66.4850   94.8340   12.1906 C.3     1  UNL1        0.1336
     14 C          65.0624   92.6665   12.0237 C.ar    1  UNL1        0.0783
     15 O          60.8334   87.8476    9.5448 O.3     1  UNL1       -0.4754
     16 C          61.3631   86.6459    8.8202 C.3     1  UNL1        0.2068
     17 C          62.3327   85.7263    9.5016 C.3     1  UNL1        0.0646
     18 C          61.9067   84.9514   10.7132 C.3     1  UNL1        0.0759
     19 C          64.0194   82.5083   10.2472 C.3     1  UNL1        0.0173
     20 C          63.9043   83.3508   11.4829 C.3     1  UNL1        0.0576
     21 C          64.7401   83.2183   12.7214 C.3     1  UNL1        0.0174
     22 C          64.2856   84.2593   13.7010 C.3     1  UNL1        0.0187
     23 C          63.1689   85.0353   13.0680 C.3     1  UNL1        0.0721
     24 N          62.9332   84.4738   11.6971 N.3     1  UNL1       -0.2738
@<TRIPOS>BOND
     1    20    19    1
     2    20    21    1
     3    21    22    1
     4    22    23    1
     5    23    24    1
     6    24    18    1
     7    18    17    1
     8    17    16    1
     9    16    15    1
    10    15     1    1
    11     1     2   ar
    12     2     3   ar
    13     3     4   ar
    14     4     7    1
    15     7     8   ar
    16     8     9   ar
    17     9    10   ar
    18    10    11    2
    19    10    12   ar
    20    12    13    1
    21    12    14   ar
    22     4     5   ar
    23     5     6   ar
    24    24    20    1
    25     6     1   ar
    26    14     7   ar
@<TRIPOS>MOLECULE
*****
 24 26 0 0 0
SMALL
GASTEIGER

@<TRIPOS>ATOM
      1 C          59.7370   88.4647    7.8124 C.ar    1  UNL1        0.1386
      2 C          59.6681   87.0081    7.4611 C.ar    1  UNL1        0.0369
      3 C          60.4865   86.0121    8.2280 C.ar    1  UNL1        0.0032
      4 C          61.3739   86.4728    9.3462 C.ar    1  UNL1        0.0016
      5 C          61.4429   87.9294    9.6975 C.ar    1  UNL1        0.0032
      6 C          60.6244   88.9253    8.9306 C.ar    1  UNL1        0.0369
      7 C          62.1924   85.4767   10.1131 C.ar    1  UNL1        0.0175
      8 C          63.1131   84.5430    9.3848 C.ar    1  UNL1        0.0064
      9 C          63.9316   83.5470   10.1517 C.ar    1  UNL1        0.0608
     10 C          63.8293   83.4847   11.6469 C.ar    1  UNL1        0.2610
     11 O          64.6477   82.4887   12.4138 O.2     1  UNL1       -0.2670
     12 N          62.9085   84.4184   12.3752 N.ar    1  UNL1       -0.2922
     13 C          62.8062   84.3561   13.8704 C.3     1  UNL1        0.1336
     14 C          62.0901   85.4144   11.6083 C.ar    1  UNL1        0.0783
     15 O          58.9186   89.4608    7.0455 O.3     1  UNL1       -0.4754
     16 C          59.5098   90.1625    5.8589 C.3     1  UNL1        0.2068
     17 C          58.6884   91.1520    5.0867 C.3     1  UNL1        0.0646
     18 C          59.3355   92.3763    4.5103 C.3     1  UNL1        0.0759
     19 C          59.8075   93.7250    1.5764 C.3     1  UNL1        0.0173
     20 C          60.7870   92.8661    2.3199 C.3     1  UNL1        0.0576
     21 C          62.1555   92.4764    1.8453 C.3     1  UNL1        0.0174
     22 C          62.7845   91.6155    2.9005 C.3     1  UNL1        0.0187
     23 C          61.8046   91.4733    4.0273 C.3     1  UNL1        0.0721
     24 N          60.5701   92.2462    3.6684 N.3     1  UNL1       -0.2738
@<TRIPOS>BOND
     1    20    19    1
     2    20    21    1
     3    21    22    1
     4    22    23    1
     5    23    24    1
     6    24    18    1
     7    18    17    1
     8    17    16    1
     9    16    15    1
    10    15     1    1
    11     1     2   ar
    12     2     3   ar
    13     3     4   ar
    14     4     7    1
    15     7     8   ar
    16     8     9   ar
    17     9    10   ar
    18    10    11    2
    19    10    12   ar
    20    12    13    1
    21    12    14   ar
    22     4     5   ar
    23     5     6   ar
    24    24    20    1
    25     6     1   ar
    26    14     7   ar
@<TRIPOS>MOLECULE
*****
 24 26 0 0 0
SMALL
GASTEIGER

@<TRIPOS>ATOM
      1 C          63.6775   83.7146   11.8437 C.ar    1  UNL1        0.1386
      2 C          63.8486   83.7245   10.3536 C.ar    1  UNL1        0.0369
      3 C          63.0232   84.6503    9.5101 C.ar    1  UNL1        0.0032
      4 C          62.0267   85.5662   10.1567 C.ar    1  UNL1        0.0016
      5 C          61.8556   85.5563   11.6468 C.ar    1  UNL1        0.0032
      6 C          62.6810   84.6305   12.4903 C.ar    1  UNL1        0.0369
      7 C          61.2013   86.4920    9.3130 C.ar    1  UNL1        0.0175
      8 C          60.5520   85.9857    8.0592 C.ar    1  UNL1        0.0064
      9 C          59.7265   86.9115    7.2156 C.ar    1  UNL1        0.0608
     10 C          59.5505   88.3436    7.6258 C.ar    1  UNL1        0.2610
     11 O          58.7251   89.2694    6.7823 O.2     1  UNL1       -0.2670
     12 N          60.1999   88.8498    8.8797 N.ar    1  UNL1       -0.2922
     13 C          60.0238   90.2818    9.2900 C.3     1  UNL1        0.1336
     14 C          61.0252   87.9240    9.7233 C.ar    1  UNL1        0.0783
     15 O          64.5030   82.7888   12.6874 O.3     1  UNL1       -0.4754
     16 C          64.6886   83.0709   14.1488 C.3     1  UNL1        0.2068
     17 C          64.9280   84.4757   14.6171 C.3     1  UNL1        0.0646
     18 C          64.0448   85.0760   15.6704 C.3     1  UNL1        0.0759
     19 C          62.5576   86.7197   18.0653 C.3     1  UNL1        0.0173
     20 C          63.1783   87.3188   16.8382 C.3     1  UNL1        0.0576
     21 C          63.2243   88.7786   16.4966 C.3     1  UNL1        0.0174
     22 C          63.9365   88.9253   15.1845 C.3     1  UNL1        0.0187
     23 C          64.3305   87.5562   14.7154 C.3     1  UNL1        0.0721
     24 N          63.8619   86.5633   15.7374 N.3     1  UNL1       -0.2738
@<TRIPOS>BOND
     1    20    19    1
     2    20    21    1
     3    21    22    1
     4    22    23    1
     5    23    24    1
     6    24    18    1
     7    18    17    1
     8    17    16    1
     9    16    15    1
    10    15     1    1
    11     1     2   ar
    12     2     3   ar
    13     3     4   ar
    14     4     7    1
    15     7     8   ar
    16     8     9   ar
    17     9    10   ar
    18    10    11    2
    19    10    12   ar
    20    12    13    1
    21    12    14   ar
    22     4     5   ar
    23     5     6   ar
    24    24    20    1
    25     6     1   ar
    26    14     7   ar
@<TRIPOS>MOLECULE
*****
 24 26 0 0 0
SMALL
GASTEIGER

@<TRIPOS>ATOM
      1 C          62.2905   88.5367   10.5196 C.ar    1  UNL1        0.1386
      2 C          61.7818   87.3171    9.8099 C.ar    1  UNL1        0.0369
      3 C          61.9166   85.9668   10.4489 C.ar    1  UNL1        0.0032
      4 C          62.5600   85.8360   11.7976 C.ar    1  UNL1        0.0016
      5 C          63.0687   87.0557   12.5073 C.ar    1  UNL1        0.0032
      6 C          62.9340   88.4060   11.8683 C.ar    1  UNL1        0.0369
      7 C          62.6947   84.4856   12.4366 C.ar    1  UNL1        0.0175
      8 C          62.7509   84.3651   13.9307 C.ar    1  UNL1        0.0064
      9 C          62.8856   83.0146   14.5696 C.ar    1  UNL1        0.0608
     10 C          62.9641   81.7847   13.7145 C.ar    1  UNL1        0.2610
     11 O          63.0988   80.4344   14.3534 O.2     1  UNL1       -0.2670
     12 N          62.9079   81.9053   12.2204 N.ar    1  UNL1       -0.2922
     13 C          62.9865   80.6755   11.3652 C.3     1  UNL1        0.1336
     14 C          62.7732   83.2557   11.5814 C.ar    1  UNL1        0.0783
     15 O          62.1558   89.8872    9.8806 O.3     1  UNL1       -0.4754
     16 C          62.6416   91.1097   10.6013 C.3     1  UNL1        0.2068
     17 C          64.0924   91.4866   10.5451 C.3     1  UNL1        0.0646
     18 C          64.6321   92.5327   11.4748 C.3     1  UNL1        0.0759
     19 C          63.8606   90.9039   14.1953 C.3     1  UNL1        0.0173
     20 C          65.2268   91.3965   13.8201 C.3     1  UNL1        0.0576
     21 C          66.4782   91.2270   14.6296 C.3     1  UNL1        0.0174
     22 C          67.6063   91.8710   13.8793 C.3     1  UNL1        0.0187
     23 C          67.0520   92.4384   12.6063 C.3     1  UNL1        0.0721
     24 N          65.5814   92.1452   12.5696 N.3     1  UNL1       -0.2738
@<TRIPOS>BOND
     1    20    19    1
     2    20    21    1
     3    21    22    1
     4    22    23    1
     5    23    24    1
     6    24    18    1
     7    18    17    1
     8    17    16    1
     9    16    15    1
    10    15     1    1
    11     1     2   ar
    12     2     3   ar
    13     3     4   ar
    14     4     7    1
    15     7     8   ar
    16     8     9   ar
    17     9    10   ar
    18    10    11    2
    19    10    12   ar
    20    12    13    1
    21    12    14   ar
    22     4     5   ar
    23     5     6   ar
    24    24    20    1
    25     6     1   ar
    26    14     7   ar
