@<TRIPOS>MOLECULE
*****
 29 31 0 0 0
SMALL
GASTEIGER

@<TRIPOS>ATOM
      1 C          61.4756   87.4451   10.6711 C.ar    1  UNL1        0.0363
      2 C          61.9043   87.3034    9.2406 C.ar    1  UNL1        0.0060
      3 C          62.5921   86.0509    8.7844 C.ar    1  UNL1        0.0370
      4 C          62.8512   84.9401    9.7587 C.ar    1  UNL1        0.1386
      5 C          62.4226   85.0819   11.1891 C.ar    1  UNL1        0.0370
      6 C          61.7348   86.3344   11.6453 C.ar    1  UNL1        0.0060
      7 C          60.7878   88.6976   11.1274 C.2     1  UNL1        0.1892
      8 O          59.5477   88.6091   11.9666 O.2     1  UNL1       -0.2899
      9 C          61.3400   90.0386   10.7443 C.3     1  UNL1        0.1424
     10 C          66.2454   92.1544   13.4758 C.2     1  UNL1        0.4051
     11 O          67.1951   93.0434   12.7291 O.2     1  UNL1       -0.2262
     12 N          65.0191   91.6254   12.7930 N.am    1  UNL1       -0.2432
     13 C          64.0694   90.7363   13.5397 C.3     1  UNL1        0.1141
     14 C          62.8431   90.2074   12.8568 C.3     1  UNL1        0.0943
     15 N          62.5664   90.5675   11.4272 N.3     1  UNL1       -0.2632
     16 C          63.5161   91.4566   10.6805 C.3     1  UNL1        0.0943
     17 C          64.7424   91.9856   11.3634 C.3     1  UNL1        0.1141
     18 C          66.9863   92.8470   15.8677 C.3     1  UNL1        0.2573
     19 O          66.5221   91.7942   14.9054 O.3     1  UNL1       -0.4304
     20 O          63.5391   83.6876    9.3024 O.3     1  UNL1       -0.4754
     21 C          64.4421   82.9434   10.2410 C.3     1  UNL1        0.2068
     22 C          63.8682   81.9370   11.1937 C.3     1  UNL1        0.0646
     23 C          64.3709   81.8689   12.6053 C.3     1  UNL1        0.0759
     24 N          63.8417   82.8209   13.6367 N.3     1  UNL1       -0.2738
     25 C          64.5075   84.0849   14.0939 C.3     1  UNL1        0.0721
     26 C          63.6311   84.7212   15.1317 C.3     1  UNL1        0.0187
     27 C          62.4237   83.8505   15.3159 C.3     1  UNL1        0.0174
     28 C          62.5539   82.6760   14.3920 C.3     1  UNL1        0.0576
     29 C          61.5691   81.5537   14.2485 C.3     1  UNL1        0.0173
@<TRIPOS>BOND
     1    18    19    1
     2    19    10    1
     3    10    11    2
     4    10    12   am
     5    12    13    1
     6    13    14    1
     7    14    15    1
     8    15     9    1
     9     9     7    1
    10     7     8    2
    11     7     1    1
    12     1     2   ar
    13     2     3   ar
    14     3     4   ar
    15     4    20    1
    16    20    21    1
    17    21    22    1
    18    22    23    1
    19    23    24    1
    20    24    25    1
    21    25    26    1
    22    26    27    1
    23    27    28    1
    24    28    29    1
    25     4     5   ar
    26     5     6   ar
    27    15    16    1
    28    16    17    1
    29    17    12    1
    30     6     1   ar
    31    28    24    1
@<TRIPOS>MOLECULE
*****
 29 31 0 0 0
SMALL
GASTEIGER

@<TRIPOS>ATOM
      1 C          61.3133   87.5210   10.7550 C.ar    1  UNL1        0.0363
      2 C          61.6939   87.4284    9.3069 C.ar    1  UNL1        0.0060
      3 C          62.4254   86.2213    8.7995 C.ar    1  UNL1        0.0370
      4 C          62.7764   85.1066    9.7400 C.ar    1  UNL1        0.1386
      5 C          62.3958   85.1992   11.1879 C.ar    1  UNL1        0.0370
      6 C          61.6643   86.4064   11.6954 C.ar    1  UNL1        0.0060
      7 C          60.5818   88.7282   11.2625 C.2     1  UNL1        0.1892
      8 O          59.4584   88.5670   12.2434 O.2     1  UNL1       -0.2899
      9 C          60.9735   90.0965   10.7890 C.3     1  UNL1        0.1424
     10 C          66.3070   92.3849   12.3110 C.2     1  UNL1        0.4051
     11 O          66.8189   92.2266   13.7120 O.2     1  UNL1       -0.2262
     12 N          64.9737   91.8128   11.9305 N.am    1  UNL1       -0.2432
     13 C          64.4618   91.9711   10.5295 C.3     1  UNL1        0.1141
     14 C          63.1284   91.3990   10.1490 C.3     1  UNL1        0.0943
     15 N          62.3069   90.6686   11.1695 N.3     1  UNL1       -0.2632
     16 C          62.8187   90.5103   12.5706 C.3     1  UNL1        0.0943
     17 C          64.1521   91.0824   12.9511 C.3     1  UNL1        0.1141
     18 C          68.0189   92.3498   10.3570 C.3     1  UNL1        0.2573
     19 O          67.1286   93.1153   11.2905 O.3     1  UNL1       -0.4304
     20 O          63.5080   83.8995    9.2325 O.3     1  UNL1       -0.4754
     21 C          64.3736   83.1014   10.1619 C.3     1  UNL1        0.2068
     22 C          63.7533   82.0983   11.0887 C.3     1  UNL1        0.0646
     23 C          64.2944   81.9247   12.4769 C.3     1  UNL1        0.0759
     24 N          63.8439   82.8391   13.5773 N.3     1  UNL1       -0.2738
     25 C          64.5408   84.0894   14.0255 C.3     1  UNL1        0.0721
     26 C          63.7450   84.6868   15.1479 C.3     1  UNL1        0.0187
     27 C          62.5561   83.8057   15.3934 C.3     1  UNL1        0.0174
     28 C          62.6173   82.6637   14.4227 C.3     1  UNL1        0.0576
     29 C          61.6258   81.5432   14.3161 C.3     1  UNL1        0.0173
@<TRIPOS>BOND
     1    18    19    1
     2    19    10    1
     3    10    11    2
     4    10    12   am
     5    12    13    1
     6    13    14    1
     7    14    15    1
     8    15     9    1
     9     9     7    1
    10     7     8    2
    11     7     1    1
    12     1     2   ar
    13     2     3   ar
    14     3     4   ar
    15     4    20    1
    16    20    21    1
    17    21    22    1
    18    22    23    1
    19    23    24    1
    20    24    25    1
    21    25    26    1
    22    26    27    1
    23    27    28    1
    24    28    29    1
    25     4     5   ar
    26     5     6   ar
    27    15    16    1
    28    16    17    1
    29    17    12    1
    30     6     1   ar
    31    28    24    1
@<TRIPOS>MOLECULE
*****
 29 31 0 0 0
SMALL
GASTEIGER

@<TRIPOS>ATOM
      1 C          61.6212   86.7736    9.9472 C.ar    1  UNL1        0.0363
      2 C          61.6535   86.2035   11.3344 C.ar    1  UNL1        0.0060
      3 C          62.4374   84.9556   11.6143 C.ar    1  UNL1        0.0370
      4 C          63.1889   84.2778   10.5071 C.ar    1  UNL1        0.1386
      5 C          63.1565   84.8478    9.1200 C.ar    1  UNL1        0.0370
      6 C          62.3727   86.0957    8.8401 C.ar    1  UNL1        0.0060
      7 C          60.8374   88.0214    9.6673 C.2     1  UNL1        0.1892
      8 O          60.1856   88.2136    8.3300 O.2     1  UNL1       -0.2899
      9 C          60.7052   89.0772   10.7246 C.3     1  UNL1        0.1424
     10 C          65.4717   92.3678   12.2906 C.2     1  UNL1        0.4051
     11 O          65.9872   92.3187   13.6983 O.2     1  UNL1       -0.2262
     12 N          64.2801   91.5452   11.8991 N.am    1  UNL1       -0.2432
     13 C          63.7646   91.5943   10.4913 C.3     1  UNL1        0.1141
     14 C          62.5730   90.7716   10.0999 C.3     1  UNL1        0.0943
     15 N          61.8969   89.8998   11.1161 N.3     1  UNL1       -0.2632
     16 C          62.4124   89.8507   12.5239 C.3     1  UNL1        0.0943
     17 C          63.6040   90.6734   12.9153 C.3     1  UNL1        0.1141
     18 C          67.2395   92.6784   10.4122 C.3     1  UNL1        0.2573
     19 O          66.1478   93.2396   11.2743 O.3     1  UNL1       -0.4304
     20 O          63.9727   83.0299   10.7870 O.3     1  UNL1       -0.4754
     21 C          63.3651   81.9307   11.6073 C.3     1  UNL1        0.2068
     22 C          63.9171   81.6162   12.9661 C.3     1  UNL1        0.0646
     23 C          63.4049   82.3476   14.1714 C.3     1  UNL1        0.0759
     24 N          63.9379   83.7095   14.5048 N.3     1  UNL1       -0.2738
     25 C          65.2802   84.2515   14.1119 C.3     1  UNL1        0.0721
     26 C          65.3940   85.6455   14.6539 C.3     1  UNL1        0.0187
     27 C          64.1220   85.9650   15.3818 C.3     1  UNL1        0.0174
     28 C          63.2221   84.7685   15.2897 C.3     1  UNL1        0.0576
     29 C          61.8476   84.6516   15.8789 C.3     1  UNL1        0.0173
@<TRIPOS>BOND
     1    18    19    1
     2    19    10    1
     3    10    11    2
     4    10    12   am
     5    12    13    1
     6    13    14    1
     7    14    15    1
     8    15     9    1
     9     9     7    1
    10     7     8    2
    11     7     1    1
    12     1     2   ar
    13     2     3   ar
    14     3     4   ar
    15     4    20    1
    16    20    21    1
    17    21    22    1
    18    22    23    1
    19    23    24    1
    20    24    25    1
    21    25    26    1
    22    26    27    1
    23    27    28    1
    24    28    29    1
    25     4     5   ar
    26     5     6   ar
    27    15    16    1
    28    16    17    1
    29    17    12    1
    30     6     1   ar
    31    28    24    1
@<TRIPOS>MOLECULE
*****
 29 31 0 0 0
SMALL
GASTEIGER

@<TRIPOS>ATOM
      1 C          62.0422   90.2015   10.9839 C.ar    1  UNL1        0.0363
      2 C          63.0313   91.1114   10.3175 C.ar    1  UNL1        0.0060
      3 C          64.2650   91.5449   11.0524 C.ar    1  UNL1        0.0370
      4 C          64.5097   91.0684   12.4535 C.ar    1  UNL1        0.1386
      5 C          63.5207   90.1585   13.1198 C.ar    1  UNL1        0.0370
      6 C          62.2870   89.7251   12.3850 C.ar    1  UNL1        0.0060
      7 C          60.8085   89.7681   10.2491 C.2     1  UNL1        0.1892
      8 O          59.5178   90.5055   10.4501 O.2     1  UNL1       -0.2899
      9 C          60.8654   88.5973    9.3132 C.3     1  UNL1        0.1424
     10 C          63.4760   83.4850   11.0593 C.2     1  UNL1        0.4051
     11 O          64.3531   82.7274   10.1071 O.2     1  UNL1       -0.2262
     12 N          62.8233   84.7630   10.6228 N.am    1  UNL1       -0.2432
     13 C          61.9463   85.5206   11.5750 C.3     1  UNL1        0.1141
     14 C          61.2936   86.7987   11.1385 C.3     1  UNL1        0.0943
     15 N          61.5180   87.3192    9.7497 N.3     1  UNL1       -0.2632
     16 C          62.3951   86.5616    8.7975 C.3     1  UNL1        0.0943
     17 C          63.0477   85.2835    9.2340 C.3     1  UNL1        0.1141
     18 C          64.1776   83.3652   13.5580 C.3     1  UNL1        0.2573
     19 O          63.2516   82.9645   12.4481 O.3     1  UNL1       -0.4304
     20 O          65.7435   91.5019   13.1884 O.3     1  UNL1       -0.4754
     21 C          65.7786   92.8358   13.8735 C.3     1  UNL1        0.2068
     22 C          66.5779   93.9604   13.2850 C.3     1  UNL1        0.0646
     23 C          66.3042   94.4223   11.8844 C.3     1  UNL1        0.0759
     24 N          67.0980   93.8624   10.7414 N.3     1  UNL1       -0.2738
     25 C          67.6244   92.4618   10.6360 C.3     1  UNL1        0.0721
     26 C          68.3565   92.3386    9.3326 C.3     1  UNL1        0.0187
     27 C          68.2826   93.6631    8.6324 C.3     1  UNL1        0.0174
     28 C          67.5047   94.6049    9.5031 C.3     1  UNL1        0.0576
     29 C          67.1891   96.0376    9.1904 C.3     1  UNL1        0.0173
@<TRIPOS>BOND
     1    18    19    1
     2    19    10    1
     3    10    11    2
     4    10    12   am
     5    12    13    1
     6    13    14    1
     7    14    15    1
     8    15     9    1
     9     9     7    1
    10     7     8    2
    11     7     1    1
    12     1     2   ar
    13     2     3   ar
    14     3     4   ar
    15     4    20    1
    16    20    21    1
    17    21    22    1
    18    22    23    1
    19    23    24    1
    20    24    25    1
    21    25    26    1
    22    26    27    1
    23    27    28    1
    24    28    29    1
    25     4     5   ar
    26     5     6   ar
    27    15    16    1
    28    16    17    1
    29    17    12    1
    30     6     1   ar
    31    28    24    1
@<TRIPOS>MOLECULE
*****
 29 31 0 0 0
SMALL
GASTEIGER

@<TRIPOS>ATOM
      1 C          62.4092   88.9147   10.8708 C.ar    1  UNL1        0.0363
      2 C          62.6609   90.1643   10.0801 C.ar    1  UNL1        0.0060
      3 C          63.3888   91.3155   10.7085 C.ar    1  UNL1        0.0370
      4 C          63.8651   91.2171   12.1275 C.ar    1  UNL1        0.1386
      5 C          63.6134   89.9675   12.9181 C.ar    1  UNL1        0.0370
      6 C          62.8855   88.8163   12.2898 C.ar    1  UNL1        0.0060
      7 C          61.6813   87.7635   10.2425 C.2     1  UNL1        0.1892
      8 O          60.2016   87.8481   10.0113 O.2     1  UNL1       -0.2899
      9 C          62.4329   86.5277    9.8455 C.3     1  UNL1        0.1424
     10 C          63.4146   82.1895   13.8725 C.2     1  UNL1        0.4051
     11 O          63.4394   82.5165   15.3362 O.2     1  UNL1       -0.2262
     12 N          63.1692   83.2741   12.8657 N.am    1  UNL1       -0.2432
     13 C          63.1443   82.9470   11.4021 C.3     1  UNL1        0.1141
     14 C          62.8989   84.0316   10.3953 C.3     1  UNL1        0.0943
     15 N          62.6783   85.4431   10.8522 N.3     1  UNL1       -0.2632
     16 C          62.7032   85.7701   12.3159 C.3     1  UNL1        0.0943
     17 C          62.9486   84.6856   13.3226 C.3     1  UNL1        0.1141
     18 C          62.4634   79.8639   13.2117 C.3     1  UNL1        0.2573
     19 O          63.6351   80.7780   13.4156 O.3     1  UNL1       -0.4304
     20 O          64.5931   92.3683   12.7558 O.3     1  UNL1       -0.4754
     21 C          65.7768   92.1137   13.6413 C.3     1  UNL1        0.2068
     22 C          67.1663   92.2977   13.1072 C.3     1  UNL1        0.0646
     23 C          67.4327   92.1397   11.6395 C.3     1  UNL1        0.0759
     24 N          67.3690   93.3331   10.7329 N.3     1  UNL1       -0.2738
     25 C          66.6737   94.6289   11.0287 C.3     1  UNL1        0.0721
     26 C          66.8644   95.5368    9.8500 C.3     1  UNL1        0.0187
     27 C          67.6775   94.8021    8.8257 C.3     1  UNL1        0.0174
     28 C          67.9893   93.4402    9.3715 C.3     1  UNL1        0.0576
     29 C          68.7823   92.3727    8.6774 C.3     1  UNL1        0.0173
@<TRIPOS>BOND
     1    18    19    1
     2    19    10    1
     3    10    11    2
     4    10    12   am
     5    12    13    1
     6    13    14    1
     7    14    15    1
     8    15     9    1
     9     9     7    1
    10     7     8    2
    11     7     1    1
    12     1     2   ar
    13     2     3   ar
    14     3     4   ar
    15     4    20    1
    16    20    21    1
    17    21    22    1
    18    22    23    1
    19    23    24    1
    20    24    25    1
    21    25    26    1
    22    26    27    1
    23    27    28    1
    24    28    29    1
    25     4     5   ar
    26     5     6   ar
    27    15    16    1
    28    16    17    1
    29    17    12    1
    30     6     1   ar
    31    28    24    1
@<TRIPOS>MOLECULE
*****
 29 31 0 0 0
SMALL
GASTEIGER

@<TRIPOS>ATOM
      1 C          61.9160   88.4761   10.5281 C.ar    1  UNL1        0.0363
      2 C          61.3878   87.6086    9.4242 C.ar    1  UNL1        0.0060
      3 C          61.4954   86.1159    9.5267 C.ar    1  UNL1        0.0370
      4 C          62.1311   85.4909   10.7330 C.ar    1  UNL1        0.1386
      5 C          62.6593   86.3584   11.8368 C.ar    1  UNL1        0.0370
      6 C          62.5518   87.8510   11.7343 C.ar    1  UNL1        0.0060
      7 C          61.8085   89.9687   10.4256 C.2     1  UNL1        0.1892
      8 O          60.4737   90.6366   10.5758 O.2     1  UNL1       -0.2899
      9 C          63.0356   90.7935   10.1730 C.3     1  UNL1        0.1424
     10 C          66.3428   92.7415   14.7846 C.2     1  UNL1        0.4051
     11 O          65.9781   92.3522   16.1865 O.2     1  UNL1       -0.2262
     12 N          65.5160   92.2545   13.6317 N.am    1  UNL1       -0.2432
     13 C          65.8808   92.6439   12.2299 C.3     1  UNL1        0.1141
     14 C          65.0540   92.1569   11.0770 C.3     1  UNL1        0.0943
     15 N          63.8624   91.2805   11.3259 N.3     1  UNL1       -0.2632
     16 C          63.4976   90.8912   12.7278 C.3     1  UNL1        0.0943
     17 C          64.3244   91.3782   13.8807 C.3     1  UNL1        0.1141
     18 C          68.5904   93.7656   15.5908 C.3     1  UNL1        0.2573
     19 O          67.5345   93.6179   14.5357 O.3     1  UNL1       -0.4304
     20 O          62.2387   83.9982   10.8355 O.3     1  UNL1       -0.4754
     21 C          63.5114   83.3092   10.4412 C.3     1  UNL1        0.2068
     22 C          64.7165   83.3936   11.3304 C.3     1  UNL1        0.0646
     23 C          64.6678   82.8212   12.7160 C.3     1  UNL1        0.0759
     24 N          63.4626   82.0505   13.1672 N.3     1  UNL1       -0.2738
     25 C          63.1127   80.6477   12.7676 C.3     1  UNL1        0.0721
     26 C          61.8296   80.2776   13.4506 C.3     1  UNL1        0.0187
     27 C          61.3865   81.4516   14.2724 C.3     1  UNL1        0.0174
     28 C          62.3958   82.5474   14.0972 C.3     1  UNL1        0.0576
     29 C          62.3467   83.9021   14.7393 C.3     1  UNL1        0.0173
@<TRIPOS>BOND
     1    18    19    1
     2    19    10    1
     3    10    11    2
     4    10    12   am
     5    12    13    1
     6    13    14    1
     7    14    15    1
     8    15     9    1
     9     9     7    1
    10     7     8    2
    11     7     1    1
    12     1     2   ar
    13     2     3   ar
    14     3     4   ar
    15     4    20    1
    16    20    21    1
    17    21    22    1
    18    22    23    1
    19    23    24    1
    20    24    25    1
    21    25    26    1
    22    26    27    1
    23    27    28    1
    24    28    29    1
    25     4     5   ar
    26     5     6   ar
    27    15    16    1
    28    16    17    1
    29    17    12    1
    30     6     1   ar
    31    28    24    1
@<TRIPOS>MOLECULE
*****
 29 31 0 0 0
SMALL
GASTEIGER

@<TRIPOS>ATOM
      1 C          63.5194   85.4524   15.4438 C.ar    1  UNL1        0.0363
      2 C          62.7661   85.7731   16.7007 C.ar    1  UNL1        0.0060
      3 C          62.7323   87.1813   17.2162 C.ar    1  UNL1        0.0370
      4 C          63.4517   88.2689   16.4748 C.ar    1  UNL1        0.1386
      5 C          64.2049   87.9482   15.2179 C.ar    1  UNL1        0.0370
      6 C          64.2388   86.5400   14.7024 C.ar    1  UNL1        0.0060
      7 C          63.5532   84.0442   14.9283 C.2     1  UNL1        0.1892
      8 O          62.8126   82.9613   15.6556 O.2     1  UNL1       -0.2899
      9 C          64.3276   83.7188   13.6856 C.3     1  UNL1        0.1424
     10 C          62.2379   85.4064    8.3204 C.2     1  UNL1        0.4051
     11 O          62.7362   84.7335    7.0759 O.2     1  UNL1       -0.2262
     12 N          62.7604   84.9845    9.6617 N.am    1  UNL1       -0.2432
     13 C          62.2621   85.6575   10.9062 C.3     1  UNL1        0.1141
     14 C          62.7845   85.2356   12.2474 C.3     1  UNL1        0.0943
     15 N          63.8052   84.1407   12.3443 N.3     1  UNL1       -0.2632
     16 C          64.3035   83.4678   11.0998 C.3     1  UNL1        0.0943
     17 C          63.7811   83.8897    9.7585 C.3     1  UNL1        0.1141
     18 C          59.8064   86.1786    7.8294 C.3     1  UNL1        0.2573
     19 O          61.2172   86.5013    8.2236 O.3     1  UNL1       -0.4304
     20 O          63.4179   89.6771   16.9902 O.3     1  UNL1       -0.4754
     21 C          63.4388   90.8284   16.0289 C.3     1  UNL1        0.2068
     22 C          64.6744   91.6677   15.8907 C.3     1  UNL1        0.0646
     23 C          65.6763   91.3568   14.8186 C.3     1  UNL1        0.0759
     24 N          65.5418   91.9828   13.4621 N.3     1  UNL1       -0.2738
     25 C          66.3313   93.1497   12.9474 C.3     1  UNL1        0.0721
     26 C          65.8717   93.4399   11.5493 C.3     1  UNL1        0.0187
     27 C          64.7981   92.4523   11.2000 C.3     1  UNL1        0.0174
     28 C          64.5943   91.5518   12.3822 C.3     1  UNL1        0.0576
     29 C          63.6148   90.4191   12.4691 C.3     1  UNL1        0.0173
@<TRIPOS>BOND
     1    18    19    1
     2    19    10    1
     3    10    11    2
     4    10    12   am
     5    12    13    1
     6    13    14    1
     7    14    15    1
     8    15     9    1
     9     9     7    1
    10     7     8    2
    11     7     1    1
    12     1     2   ar
    13     2     3   ar
    14     3     4   ar
    15     4    20    1
    16    20    21    1
    17    21    22    1
    18    22    23    1
    19    23    24    1
    20    24    25    1
    21    25    26    1
    22    26    27    1
    23    27    28    1
    24    28    29    1
    25     4     5   ar
    26     5     6   ar
    27    15    16    1
    28    16    17    1
    29    17    12    1
    30     6     1   ar
    31    28    24    1
@<TRIPOS>MOLECULE
*****
 29 31 0 0 0
SMALL
GASTEIGER

@<TRIPOS>ATOM
      1 C          63.8047   83.8197   14.0023 C.ar    1  UNL1        0.0363
      2 C          62.6285   83.7563   14.9312 C.ar    1  UNL1        0.0060
      3 C          62.4801   84.7733   16.0238 C.ar    1  UNL1        0.0370
      4 C          63.5078   85.8536   16.1875 C.ar    1  UNL1        0.1386
      5 C          64.6838   85.9170   15.2587 C.ar    1  UNL1        0.0370
      6 C          64.8323   84.9001   14.1661 C.ar    1  UNL1        0.0060
      7 C          63.9531   82.8028   12.9097 C.2     1  UNL1        0.1892
      8 O          63.8871   81.3395   13.2330 O.2     1  UNL1       -0.2899
      9 C          64.1676   83.2491   11.4938 C.3     1  UNL1        0.1424
     10 C          60.5138   87.3325    9.0493 C.2     1  UNL1        0.4051
     11 O          60.5024   87.5346    7.5630 O.2     1  UNL1       -0.2262
     12 N          61.4273   86.3117    9.6604 N.am    1  UNL1       -0.2432
     13 C          61.4386   86.1096   11.1467 C.3     1  UNL1        0.1141
     14 C          62.3521   85.0887   11.7578 C.3     1  UNL1        0.0943
     15 N          63.2541   84.2700   10.8827 N.3     1  UNL1       -0.2632
     16 C          63.2428   84.4721    9.3964 C.3     1  UNL1        0.0943
     17 C          62.3293   85.4929    8.7853 C.3     1  UNL1        0.1141
     18 C          59.9957   89.5535   10.2939 C.3     1  UNL1        0.2573
     19 O          59.6118   88.1513    9.9244 O.3     1  UNL1       -0.4304
     20 O          63.3593   86.8706   17.2801 O.3     1  UNL1       -0.4754
     21 C          62.6782   88.1775   17.0008 C.3     1  UNL1        0.2068
     22 C          63.4504   89.3109   16.3933 C.3     1  UNL1        0.0646
     23 C          63.4154   89.5324   14.9102 C.3     1  UNL1        0.0759
     24 N          64.2822   90.5872   14.2887 N.3     1  UNL1       -0.2738
     25 C          65.3986   91.3237   14.9678 C.3     1  UNL1        0.0721
     26 C          65.9912   92.2823   13.9778 C.3     1  UNL1        0.0187
     27 C          65.2410   92.1382   12.6869 C.3     1  UNL1        0.0174
     28 C          64.1848   91.0906   12.8791 C.3     1  UNL1        0.0576
     29 C          63.2035   90.6276   11.8434 C.3     1  UNL1        0.0173
@<TRIPOS>BOND
     1    18    19    1
     2    19    10    1
     3    10    11    2
     4    10    12   am
     5    12    13    1
     6    13    14    1
     7    14    15    1
     8    15     9    1
     9     9     7    1
    10     7     8    2
    11     7     1    1
    12     1     2   ar
    13     2     3   ar
    14     3     4   ar
    15     4    20    1
    16    20    21    1
    17    21    22    1
    18    22    23    1
    19    23    24    1
    20    24    25    1
    21    25    26    1
    22    26    27    1
    23    27    28    1
    24    28    29    1
    25     4     5   ar
    26     5     6   ar
    27    15    16    1
    28    16    17    1
    29    17    12    1
    30     6     1   ar
    31    28    24    1
@<TRIPOS>MOLECULE
*****
 29 31 0 0 0
SMALL
GASTEIGER

@<TRIPOS>ATOM
      1 C          61.8136   89.7846   11.3605 C.ar    1  UNL1        0.0363
      2 C          62.1492   90.3774   10.0240 C.ar    1  UNL1        0.0060
      3 C          63.3734   91.2300    9.8679 C.ar    1  UNL1        0.0370
      4 C          64.2621   91.4896   11.0482 C.ar    1  UNL1        0.1386
      5 C          63.9265   90.8967   12.3845 C.ar    1  UNL1        0.0370
      6 C          62.7022   90.0442   12.5406 C.ar    1  UNL1        0.0060
      7 C          60.5893   88.9320   11.5166 C.2     1  UNL1        0.1892
      8 O          59.5433   89.2996   12.5271 O.2     1  UNL1       -0.2899
      9 C          60.4110   87.7120   10.6624 C.3     1  UNL1        0.1424
     10 C          64.2216   83.1061   11.1772 C.2     1  UNL1        0.4051
     11 O          64.8445   82.5074    9.9510 O.2     1  UNL1       -0.2262
     12 N          63.2689   84.2576   11.0485 N.am    1  UNL1       -0.2432
     13 C          62.6460   84.8563   12.2746 C.3     1  UNL1        0.1141
     14 C          61.6934   86.0078   12.1459 C.3     1  UNL1        0.0943
     15 N          61.3636   86.5605   10.7911 N.3     1  UNL1       -0.2632
     16 C          61.9865   85.9618    9.5649 C.3     1  UNL1        0.0943
     17 C          62.9392   84.8104    9.6936 C.3     1  UNL1        0.1141
     18 C          63.6731   81.5051   13.1485 C.3     1  UNL1        0.2573
     19 O          64.5513   82.5533   12.5320 O.3     1  UNL1       -0.4304
     20 O          65.4863   92.3421   10.8920 O.3     1  UNL1       -0.4754
     21 C          65.4753   93.7647   11.3676 C.3     1  UNL1        0.2068
     22 C          66.5223   94.2419   12.3300 C.3     1  UNL1        0.0646
     23 C          66.2666   94.1820   13.8068 C.3     1  UNL1        0.0759
     24 N          67.2591   93.5165   14.7134 N.3     1  UNL1       -0.2738
     25 C          68.4087   94.1867   15.4058 C.3     1  UNL1        0.0721
     26 C          69.1364   93.1483   16.2071 C.3     1  UNL1        0.0187
     27 C          68.4367   91.8363   16.0100 C.3     1  UNL1        0.0174
     28 C          67.2765   92.0638   15.0869 C.3     1  UNL1        0.0576
     29 C          66.3042   91.0216   14.6193 C.3     1  UNL1        0.0173
@<TRIPOS>BOND
     1    18    19    1
     2    19    10    1
     3    10    11    2
     4    10    12   am
     5    12    13    1
     6    13    14    1
     7    14    15    1
     8    15     9    1
     9     9     7    1
    10     7     8    2
    11     7     1    1
    12     1     2   ar
    13     2     3   ar
    14     3     4   ar
    15     4    20    1
    16    20    21    1
    17    21    22    1
    18    22    23    1
    19    23    24    1
    20    24    25    1
    21    25    26    1
    22    26    27    1
    23    27    28    1
    24    28    29    1
    25     4     5   ar
    26     5     6   ar
    27    15    16    1
    28    16    17    1
    29    17    12    1
    30     6     1   ar
    31    28    24    1
