@<TRIPOS>MOLECULE
*****
 39 43 0 0 0
SMALL
GASTEIGER

@<TRIPOS>ATOM
      1 C          62.8110   88.2412   17.8325 C.3     1  UNL1        0.0310
      2 C          63.3514   89.0083   16.6623 C.ar    1  UNL1       -0.0218
      3 C          63.5136   90.4969   16.7517 C.ar    1  UNL1       -0.0030
      4 C          64.0540   91.2640   15.5813 C.ar    1  UNL1        0.0144
      5 C          64.4321   90.5426   14.3218 C.ar    1  UNL1        0.0506
      6 C          64.2698   89.0541   14.2324 C.ar    1  UNL1        0.0144
      7 C          63.7295   88.2870   15.4027 C.ar    1  UNL1       -0.0026
      8 C          63.5672   86.7984   15.3133 C.ar    1  UNL1        0.0028
      9 C          63.3640   85.9899   16.5603 C.ar    1  UNL1        0.0015
     10 C          63.2018   84.5014   16.4710 C.ar    1  UNL1        0.0178
     11 C          63.2427   83.8214   15.1347 C.ar    1  UNL1        0.0847
     12 C          63.4460   84.6299   13.8877 C.ar    1  UNL1        0.1515
     13 C          63.6082   86.1184   13.9770 C.ar    1  UNL1        0.0382
     14 O          63.5179   84.1551   12.4665 O.3     1  UNL1       -0.4807
     15 C          63.4045   82.7545   11.9415 C.3     1  UNL1        0.1466
     16 C          63.3049   81.3960   11.3134 C.3     1  UNL1        0.0726
     17 C          63.4202   81.2475    9.8253 C.3     1  UNL1        0.1458
     18 O          63.6349   82.4575    8.9652 O.3     1  UNL1       -0.3535
     19 C          63.7345   83.8161    9.5933 C.3     1  UNL1        0.1458
     20 C          63.6192   83.9645   11.0814 C.3     1  UNL1        0.0726
     21 C          63.1910   81.4829   12.7079 C.3     1  UNL1        0.1254
     22 C          63.0382   81.2977   14.1886 C.2     1  UNL1        0.2297
     23 O          62.8357   79.8850   14.6503 O.2     1  UNL1       -0.2746
     24 N          63.0613   82.3384   15.2686 N.am    1  UNL1       -0.2814
     25 H          62.9415   82.0040   16.1867 H       1  UNL1        0.1549
     26 N          64.9725   91.3097   13.1516 N.am    1  UNL1       -0.2791
     27 C          65.7248   92.5880   13.3755 C.2     1  UNL1        0.2690
     28 O          65.9367   93.0991   14.7697 O.2     1  UNL1       -0.2681
     29 H          64.8334   90.9742   12.2365 H       1  UNL1        0.1552
     30 C          66.2651   93.3551   12.2053 C.ar    1  UNL1        0.1562
     31 C          67.0578   92.6479   11.1463 C.ar    1  UNL1        0.0310
     32 C          67.5982   93.4150    9.9761 C.ar    1  UNL1        0.0940
     33 C          67.3459   94.8894    9.8648 C.ar    1  UNL1        0.1260
     34 N          66.5533   95.5967   10.9237 N.ar    1  UNL1       -0.1463
     35 N          66.0128   94.8296   12.0940 N.ar    1  UNL1       -0.1433
     36 C          68.3908   92.7077    8.9170 C.3     1  UNL1        0.4201
     37 F          69.1835   92.0004    7.8582 F       1  UNL1       -0.1658
     38 F          68.7820   91.6559    9.9124 F       1  UNL1       -0.1658
     39 F          67.9997   93.7595    7.9218 F       1  UNL1       -0.1658
@<TRIPOS>BOND
     1     1     2    1
     2     2     3   ar
     3     3     4   ar
     4     4     5   ar
     5     5    26    1
     6    26    27   am
     7    27    28    2
     8    27    30    1
     9    30    31   ar
    10    31    32   ar
    11    32    36    1
    12    36    37    1
    13    36    38    1
    14    36    39    1
    15    32    33   ar
    16    33    34   ar
    17    34    35   ar
    18     5     6   ar
    19     6     7   ar
    20     7     8    1
    21     8     9   ar
    22     9    10   ar
    23    10    11   ar
    24    11    12   ar
    25    12    13   ar
    26    12    14    1
    27    14    15    1
    28    15    16    1
    29    16    17    1
    30    17    18    1
    31    18    19    1
    32    19    20    1
    33    15    21    1
    34    21    22    1
    35    22    23    2
    36    22    24   am
    37     7     2   ar
    38    13     8   ar
    39    20    15    1
    40    35    30   ar
    41    24    11    1
    42    26    29    1
    43    24    25    1
@<TRIPOS>MOLECULE
*****
 39 43 0 0 0
SMALL
GASTEIGER

@<TRIPOS>ATOM
      1 C          60.0664   87.8343    8.5512 C.3     1  UNL1        0.0310
      2 C          60.8530   88.6455    9.5376 C.ar    1  UNL1       -0.0218
      3 C          60.5209   90.0924    9.7531 C.ar    1  UNL1       -0.0030
      4 C          61.3075   90.9035   10.7397 C.ar    1  UNL1        0.0144
      5 C          62.4263   90.2679   11.5106 C.ar    1  UNL1        0.0506
      6 C          62.7584   88.8212   11.2951 C.ar    1  UNL1        0.0144
      7 C          61.9717   88.0100   10.3086 C.ar    1  UNL1       -0.0026
      8 C          62.3039   86.5631   10.0931 C.ar    1  UNL1        0.0028
      9 C          62.7581   86.0908    8.7438 C.ar    1  UNL1        0.0015
     10 C          63.0902   84.6440    8.5283 C.ar    1  UNL1        0.0178
     11 C          62.9682   83.6695    9.6620 C.ar    1  UNL1        0.0847
     12 C          62.5140   84.1418   11.0113 C.ar    1  UNL1        0.1515
     13 C          62.1818   85.5886   11.2269 C.ar    1  UNL1        0.0382
     14 O          62.3256   83.3434   12.2671 O.3     1  UNL1       -0.4807
     15 C          62.5449   81.8753   12.4838 C.3     1  UNL1        0.1466
     16 C          62.7325   80.4227   12.8069 C.3     1  UNL1        0.0726
     17 C          62.4530   79.9203   14.1923 C.3     1  UNL1        0.1458
     18 O          61.9858   80.8707   15.2547 O.3     1  UNL1       -0.3535
     19 C          61.7982   82.3234   14.9315 C.3     1  UNL1        0.1458
     20 C          62.0777   82.8257   13.5461 C.3     1  UNL1        0.0726
     21 C          63.0067   80.8433   11.4981 C.3     1  UNL1        0.1254
     22 C          63.3634   81.0243   10.0524 C.2     1  UNL1        0.2297
     23 O          63.7941   79.7835    9.3280 O.2     1  UNL1       -0.2746
     24 N          63.3462   82.2821    9.2352 N.am    1  UNL1       -0.2814
     25 H          63.6191   82.1841    8.2944 H       1  UNL1        0.1549
     26 N          63.2129   91.0791   12.4971 N.am    1  UNL1       -0.2791
     27 C          63.7367   90.4373   13.7476 C.2     1  UNL1        0.2690
     28 O          63.4739   88.9844   14.0116 O.2     1  UNL1       -0.2681
     29 H          63.3854   92.0328   12.3238 H       1  UNL1        0.1552
     30 C          64.5233   91.2485   14.7341 C.ar    1  UNL1        0.1562
     31 C          65.9588   91.5824   14.4553 C.ar    1  UNL1        0.0310
     32 C          66.7455   92.3936   15.4417 C.ar    1  UNL1        0.0940
     33 C          66.0966   92.8709   16.7070 C.ar    1  UNL1        0.1260
     34 N          64.6611   92.5371   16.9859 N.ar    1  UNL1       -0.1463
     35 N          63.8744   91.7259   15.9995 N.ar    1  UNL1       -0.1433
     36 C          68.1810   92.7275   15.1629 C.3     1  UNL1        0.4201
     37 F          69.6165   93.0614   14.8840 F       1  UNL1       -0.1658
     38 F          68.2465   91.6110   14.1633 F       1  UNL1       -0.1658
     39 F          68.1155   93.8440   16.1624 F       1  UNL1       -0.1658
@<TRIPOS>BOND
     1     1     2    1
     2     2     3   ar
     3     3     4   ar
     4     4     5   ar
     5     5    26    1
     6    26    27   am
     7    27    28    2
     8    27    30    1
     9    30    31   ar
    10    31    32   ar
    11    32    36    1
    12    36    37    1
    13    36    38    1
    14    36    39    1
    15    32    33   ar
    16    33    34   ar
    17    34    35   ar
    18     5     6   ar
    19     6     7   ar
    20     7     8    1
    21     8     9   ar
    22     9    10   ar
    23    10    11   ar
    24    11    12   ar
    25    12    13   ar
    26    12    14    1
    27    14    15    1
    28    15    16    1
    29    16    17    1
    30    17    18    1
    31    18    19    1
    32    19    20    1
    33    15    21    1
    34    21    22    1
    35    22    23    2
    36    22    24   am
    37     7     2   ar
    38    13     8   ar
    39    20    15    1
    40    35    30   ar
    41    24    11    1
    42    26    29    1
    43    24    25    1
@<TRIPOS>MOLECULE
*****
 39 43 0 0 0
SMALL
GASTEIGER

@<TRIPOS>ATOM
      1 C          59.1866   87.1910    6.7440 C.3     1  UNL1        0.0310
      2 C          59.7846   87.8887    7.9296 C.ar    1  UNL1       -0.0218
      3 C          60.1004   87.1143    9.1749 C.ar    1  UNL1       -0.0030
      4 C          60.6984   87.8120   10.3605 C.ar    1  UNL1        0.0144
      5 C          60.9807   89.2840   10.3008 C.ar    1  UNL1        0.0506
      6 C          60.6650   90.0583    9.0555 C.ar    1  UNL1        0.0144
      7 C          60.0670   89.3606    7.8700 C.ar    1  UNL1       -0.0026
      8 C          59.7512   90.1350    6.6246 C.ar    1  UNL1        0.0028
      9 C          58.3309   90.4984    6.3073 C.ar    1  UNL1        0.0015
     10 C          58.0152   91.2727    5.0621 C.ar    1  UNL1        0.0178
     11 C          59.1197   91.6837    4.1341 C.ar    1  UNL1        0.0847
     12 C          60.5400   91.3203    4.4514 C.ar    1  UNL1        0.1515
     13 C          60.8558   90.5459    5.6967 C.ar    1  UNL1        0.0382
     14 O          61.7816   91.6287    3.6683 O.3     1  UNL1       -0.4807
     15 C          61.9096   92.3768    2.3744 C.3     1  UNL1        0.1466
     16 C          62.1482   93.1076    1.0865 C.3     1  UNL1        0.0726
     17 C          63.5426   93.2501    0.5523 C.3     1  UNL1        0.1458
     18 O          64.6983   92.6619    1.3061 O.3     1  UNL1       -0.3535
     19 C          64.4597   91.9310    2.5940 C.3     1  UNL1        0.1458
     20 C          63.0653   91.7885    3.1282 C.3     1  UNL1        0.0726
     21 C          60.8276   93.0011    1.5441 C.3     1  UNL1        0.1254
     22 C          59.3503   93.0316    1.8026 C.2     1  UNL1        0.2297
     23 O          58.5238   93.7424    0.7723 O.2     1  UNL1       -0.2746
     24 N          58.5902   92.4453    2.9553 N.am    1  UNL1       -0.2814
     25 H          57.6149   92.5779    2.9355 H       1  UNL1        0.1549
     26 N          61.5788   89.9816   11.4863 N.am    1  UNL1       -0.2791
     27 C          62.6226   89.2924   12.3143 C.2     1  UNL1        0.2690
     28 O          63.0684   87.9056   11.9566 O.2     1  UNL1       -0.2681
     29 H          61.2862   90.8918   11.7211 H       1  UNL1        0.1552
     30 C          63.2207   89.9900   13.4999 C.ar    1  UNL1        0.1562
     31 C          64.4686   90.8065   13.3389 C.ar    1  UNL1        0.0310
     32 C          65.0666   91.5042   14.5244 C.ar    1  UNL1        0.0940
     33 C          64.4167   91.3853   15.8711 C.ar    1  UNL1        0.1260
     34 N          63.1688   90.5688   16.0322 N.ar    1  UNL1       -0.1463
     35 N          62.5707   89.8711   14.8466 N.ar    1  UNL1       -0.1433
     36 C          66.3146   92.3207   14.3634 C.3     1  UNL1        0.4201
     37 F          67.5625   93.1372   14.2023 F       1  UNL1       -0.1658
     38 F          66.4002   91.9059   12.9244 F       1  UNL1       -0.1658
     39 F          66.2289   92.7355   15.8023 F       1  UNL1       -0.1658
@<TRIPOS>BOND
     1     1     2    1
     2     2     3   ar
     3     3     4   ar
     4     4     5   ar
     5     5    26    1
     6    26    27   am
     7    27    28    2
     8    27    30    1
     9    30    31   ar
    10    31    32   ar
    11    32    36    1
    12    36    37    1
    13    36    38    1
    14    36    39    1
    15    32    33   ar
    16    33    34   ar
    17    34    35   ar
    18     5     6   ar
    19     6     7   ar
    20     7     8    1
    21     8     9   ar
    22     9    10   ar
    23    10    11   ar
    24    11    12   ar
    25    12    13   ar
    26    12    14    1
    27    14    15    1
    28    15    16    1
    29    16    17    1
    30    17    18    1
    31    18    19    1
    32    19    20    1
    33    15    21    1
    34    21    22    1
    35    22    23    2
    36    22    24   am
    37     7     2   ar
    38    13     8   ar
    39    20    15    1
    40    35    30   ar
    41    24    11    1
    42    26    29    1
    43    24    25    1
@<TRIPOS>MOLECULE
*****
 39 43 0 0 0
SMALL
GASTEIGER

@<TRIPOS>ATOM
      1 C          59.6396   86.9060    9.3070 C.3     1  UNL1        0.0310
      2 C          59.6501   88.0035    8.2846 C.ar    1  UNL1       -0.0218
      3 C          59.0598   87.7683    6.9258 C.ar    1  UNL1       -0.0030
      4 C          59.0703   88.8658    5.9033 C.ar    1  UNL1        0.0144
      5 C          59.6710   90.1984    6.2397 C.ar    1  UNL1        0.0506
      6 C          60.2613   90.4336    7.5984 C.ar    1  UNL1        0.0144
      7 C          60.2508   89.3361    8.6208 C.ar    1  UNL1       -0.0026
      8 C          60.8412   89.5713    9.9797 C.ar    1  UNL1        0.0028
      9 C          60.1560   89.0296   11.1991 C.ar    1  UNL1        0.0015
     10 C          60.7462   89.2648   12.5578 C.ar    1  UNL1        0.0178
     11 C          62.0217   90.0417   12.6972 C.ar    1  UNL1        0.0847
     12 C          62.7069   90.5834   11.4778 C.ar    1  UNL1        0.1515
     13 C          62.1167   90.3483   10.1190 C.ar    1  UNL1        0.0382
     14 O          63.9764   91.3781   11.3937 O.3     1  UNL1       -0.4807
     15 C          64.8742   91.8272   12.5083 C.3     1  UNL1        0.1466
     16 C          65.8372   92.3243   13.5453 C.3     1  UNL1        0.0726
     17 C          67.0446   93.1122   13.1312 C.3     1  UNL1        0.1458
     18 O          67.2889   93.4030   11.6801 O.3     1  UNL1       -0.3535
     19 C          66.3258   92.9059   10.6431 C.3     1  UNL1        0.1458
     20 C          65.1185   92.1180   11.0572 C.3     1  UNL1        0.0726
     21 C          64.7242   91.5927   13.9822 C.3     1  UNL1        0.1254
     22 C          63.6394   90.8510   14.7056 C.2     1  UNL1        0.2297
     23 O          63.7753   90.7918   16.1982 O.2     1  UNL1       -0.2746
     24 N          62.4367   90.1608   14.1337 N.am    1  UNL1       -0.2814
     25 H          61.8409   89.7288   14.7876 H       1  UNL1        0.1549
     26 N          59.6815   91.2959    5.2172 N.am    1  UNL1       -0.2791
     27 C          60.8844   91.4956    4.3435 C.2     1  UNL1        0.2690
     28 O          62.0767   90.5978    4.4923 O.2     1  UNL1       -0.2681
     29 H          58.8989   91.8851    5.1196 H       1  UNL1        0.1552
     30 C          60.8948   92.5931    3.3211 C.ar    1  UNL1        0.1562
     31 C          62.0160   92.6829    2.3287 C.ar    1  UNL1        0.0310
     32 C          62.0264   93.7804    1.3063 C.ar    1  UNL1        0.0940
     33 C          60.9157   94.7880    1.2762 C.ar    1  UNL1        0.1260
     34 N          59.7945   94.6982    2.2685 N.ar    1  UNL1       -0.1463
     35 N          59.7840   93.6007    3.2910 N.ar    1  UNL1       -0.1433
     36 C          63.1477   93.8703    0.3138 C.3     1  UNL1        0.4201
     37 F          64.2689   93.9601   -0.6785 F       1  UNL1       -0.1658
     38 F          63.9294   92.8647    1.1062 F       1  UNL1       -0.1658
     39 F          62.3659   94.8758   -0.4783 F       1  UNL1       -0.1658
@<TRIPOS>BOND
     1     1     2    1
     2     2     3   ar
     3     3     4   ar
     4     4     5   ar
     5     5    26    1
     6    26    27   am
     7    27    28    2
     8    27    30    1
     9    30    31   ar
    10    31    32   ar
    11    32    36    1
    12    36    37    1
    13    36    38    1
    14    36    39    1
    15    32    33   ar
    16    33    34   ar
    17    34    35   ar
    18     5     6   ar
    19     6     7   ar
    20     7     8    1
    21     8     9   ar
    22     9    10   ar
    23    10    11   ar
    24    11    12   ar
    25    12    13   ar
    26    12    14    1
    27    14    15    1
    28    15    16    1
    29    16    17    1
    30    17    18    1
    31    18    19    1
    32    19    20    1
    33    15    21    1
    34    21    22    1
    35    22    23    2
    36    22    24   am
    37     7     2   ar
    38    13     8   ar
    39    20    15    1
    40    35    30   ar
    41    24    11    1
    42    26    29    1
    43    24    25    1
@<TRIPOS>MOLECULE
*****
 39 43 0 0 0
SMALL
GASTEIGER

@<TRIPOS>ATOM
      1 C          62.7982   85.7531   12.4440 C.3     1  UNL1        0.0310
      2 C          62.1686   86.3952   11.2434 C.ar    1  UNL1       -0.0218
      3 C          61.3729   85.5654   10.2798 C.ar    1  UNL1       -0.0030
      4 C          60.7433   86.2076    9.0793 C.ar    1  UNL1        0.0144
      5 C          60.9094   87.6794    8.8424 C.ar    1  UNL1        0.0506
      6 C          61.7050   88.5090    9.8059 C.ar    1  UNL1        0.0144
      7 C          62.3346   87.8669   11.0065 C.ar    1  UNL1       -0.0026
      8 C          63.1303   88.6967   11.9701 C.ar    1  UNL1        0.0028
      9 C          63.4095   88.1814   13.3509 C.ar    1  UNL1        0.0015
     10 C          64.2051   89.0111   14.3144 C.ar    1  UNL1        0.0178
     11 C          64.7216   90.3561   13.8973 C.ar    1  UNL1        0.0847
     12 C          64.4425   90.8714   12.5165 C.ar    1  UNL1        0.1515
     13 C          63.6468   90.0417   11.5529 C.ar    1  UNL1        0.0382
     14 O          64.8608   92.1744   11.9022 O.3     1  UNL1       -0.4807
     15 C          65.6615   93.2839   12.5171 C.3     1  UNL1        0.1466
     16 C          66.4522   94.4486   13.0348 C.3     1  UNL1        0.0726
     17 C          66.7063   95.6344   12.1520 C.3     1  UNL1        0.1458
     18 O          66.1697   95.6553   10.7514 O.3     1  UNL1       -0.3535
     19 C          65.3790   94.4906   10.2337 C.3     1  UNL1        0.1458
     20 C          65.1249   93.3049   11.1165 C.3     1  UNL1        0.0726
     21 C          66.2417   93.3644   13.8980 C.3     1  UNL1        0.1254
     22 C          66.1645   92.3553   15.0052 C.2     1  UNL1        0.2297
     23 O          66.8550   92.7352   16.2813 O.2     1  UNL1       -0.2746
     24 N          65.4879   91.0164   15.0048 N.am    1  UNL1       -0.2814
     25 H          65.5559   90.5033   15.8423 H       1  UNL1        0.1549
     26 N          60.2798   88.3215    7.6418 N.am    1  UNL1       -0.2791
     27 C          59.7213   89.7102    7.7404 C.2     1  UNL1        0.2690
     28 O          59.7924   90.4567    9.0394 O.2     1  UNL1       -0.2681
     29 H          60.2332   87.8315    6.7892 H       1  UNL1        0.1552
     30 C          59.0917   90.3523    6.5398 C.ar    1  UNL1        0.1562
     31 C          59.9506   91.0383    5.5192 C.ar    1  UNL1        0.0310
     32 C          59.3210   91.6804    4.3187 C.ar    1  UNL1        0.0940
     33 C          57.8325   91.6365    4.1388 C.ar    1  UNL1        0.1260
     34 N          56.9736   90.9505    5.1593 N.ar    1  UNL1       -0.1463
     35 N          57.6031   90.3084    6.3599 N.ar    1  UNL1       -0.1433
     36 C          60.1799   92.3664    3.2980 C.3     1  UNL1        0.4201
     37 F          61.0388   93.0524    2.2774 F       1  UNL1       -0.1658
     38 F          58.9533   92.7550    2.5271 F       1  UNL1       -0.1658
     39 F          61.4065   91.9777    4.0690 F       1  UNL1       -0.1658
@<TRIPOS>BOND
     1     1     2    1
     2     2     3   ar
     3     3     4   ar
     4     4     5   ar
     5     5    26    1
     6    26    27   am
     7    27    28    2
     8    27    30    1
     9    30    31   ar
    10    31    32   ar
    11    32    36    1
    12    36    37    1
    13    36    38    1
    14    36    39    1
    15    32    33   ar
    16    33    34   ar
    17    34    35   ar
    18     5     6   ar
    19     6     7   ar
    20     7     8    1
    21     8     9   ar
    22     9    10   ar
    23    10    11   ar
    24    11    12   ar
    25    12    13   ar
    26    12    14    1
    27    14    15    1
    28    15    16    1
    29    16    17    1
    30    17    18    1
    31    18    19    1
    32    19    20    1
    33    15    21    1
    34    21    22    1
    35    22    23    2
    36    22    24   am
    37     7     2   ar
    38    13     8   ar
    39    20    15    1
    40    35    30   ar
    41    24    11    1
    42    26    29    1
    43    24    25    1
@<TRIPOS>MOLECULE
*****
 39 43 0 0 0
SMALL
GASTEIGER

@<TRIPOS>ATOM
      1 C          63.0388   88.3722   17.0866 C.3     1  UNL1        0.0310
      2 C          63.6450   89.5073   16.3159 C.ar    1  UNL1       -0.0218
      3 C          63.7800   90.8587   16.9527 C.ar    1  UNL1       -0.0030
      4 C          64.3863   91.9938   16.1819 C.ar    1  UNL1        0.0144
      5 C          64.8574   91.7774   14.7744 C.ar    1  UNL1        0.0506
      6 C          64.7223   90.4261   14.1376 C.ar    1  UNL1        0.0144
      7 C          64.1161   89.2910   14.9083 C.ar    1  UNL1       -0.0026
      8 C          63.9811   87.9396   14.2715 C.ar    1  UNL1        0.0028
      9 C          64.4753   86.7191   14.9900 C.ar    1  UNL1        0.0015
     10 C          64.3403   85.3678   14.3532 C.ar    1  UNL1        0.0178
     11 C          63.7110   85.2368   12.9979 C.ar    1  UNL1        0.0847
     12 C          63.2168   86.4573   12.2794 C.ar    1  UNL1        0.1515
     13 C          63.3518   87.8087   12.9162 C.ar    1  UNL1        0.0382
     14 O          62.5636   86.5492   10.9322 O.3     1  UNL1       -0.4807
     15 C          62.2434   85.4432    9.9707 C.3     1  UNL1        0.1466
     16 C          61.8807   84.4150    8.9405 C.3     1  UNL1        0.0726
     17 C          61.2192   84.8356    7.6617 C.3     1  UNL1        0.1458
     18 O          60.9204   86.2844    7.4130 O.3     1  UNL1       -0.3535
     19 C          61.2830   87.3125    8.4432 C.3     1  UNL1        0.1458
     20 C          61.9445   86.8919    9.7221 C.3     1  UNL1        0.0726
     21 C          62.4972   83.9723   10.1190 C.3     1  UNL1        0.1254
     22 C          63.1340   83.2440   11.2654 C.2     1  UNL1        0.2297
     23 O          63.2452   81.7563   11.1101 O.2     1  UNL1       -0.2746
     24 N          63.6742   83.8068   12.5467 N.am    1  UNL1       -0.2814
     25 H          64.0548   83.1509   13.1744 H       1  UNL1        0.1549
     26 N          65.4636   92.9125   14.0036 N.am    1  UNL1       -0.2791
     27 C          65.3865   92.9277   12.5056 C.2     1  UNL1        0.2690
     28 O          64.7032   91.8078   11.7785 O.2     1  UNL1       -0.2681
     29 H          65.9121   93.6476   14.4809 H       1  UNL1        0.1552
     30 C          65.9927   94.0628   11.7349 C.ar    1  UNL1        0.1562
     31 C          66.4506   93.8503   10.3224 C.ar    1  UNL1        0.0310
     32 C          67.0568   94.9854    9.5517 C.ar    1  UNL1        0.0940
     33 C          67.2050   96.3330   10.1934 C.ar    1  UNL1        0.1260
     34 N          66.7472   96.5456   11.6059 N.ar    1  UNL1       -0.1463
     35 N          66.1410   95.4105   12.3767 N.ar    1  UNL1       -0.1433
     36 C          67.5147   94.7729    8.1391 C.3     1  UNL1        0.4201
     37 F          67.9725   94.5604    6.7267 F       1  UNL1       -0.1658
     38 F          66.9012   96.0832    7.7432 F       1  UNL1       -0.1658
     39 F          68.1281   93.4626    8.5352 F       1  UNL1       -0.1658
@<TRIPOS>BOND
     1     1     2    1
     2     2     3   ar
     3     3     4   ar
     4     4     5   ar
     5     5    26    1
     6    26    27   am
     7    27    28    2
     8    27    30    1
     9    30    31   ar
    10    31    32   ar
    11    32    36    1
    12    36    37    1
    13    36    38    1
    14    36    39    1
    15    32    33   ar
    16    33    34   ar
    17    34    35   ar
    18     5     6   ar
    19     6     7   ar
    20     7     8    1
    21     8     9   ar
    22     9    10   ar
    23    10    11   ar
    24    11    12   ar
    25    12    13   ar
    26    12    14    1
    27    14    15    1
    28    15    16    1
    29    16    17    1
    30    17    18    1
    31    18    19    1
    32    19    20    1
    33    15    21    1
    34    21    22    1
    35    22    23    2
    36    22    24   am
    37     7     2   ar
    38    13     8   ar
    39    20    15    1
    40    35    30   ar
    41    24    11    1
    42    26    29    1
    43    24    25    1
@<TRIPOS>MOLECULE
*****
 39 43 0 0 0
SMALL
GASTEIGER

@<TRIPOS>ATOM
      1 C          64.8716   95.1771   -0.7782 C.3     1  UNL1        0.0310
      2 C          64.0202   94.3710    0.1573 C.ar    1  UNL1       -0.0218
      3 C          64.5870   93.8878    1.4594 C.ar    1  UNL1       -0.0030
      4 C          63.7355   93.0816    2.3949 C.ar    1  UNL1        0.0144
      5 C          62.3173   92.7587    2.0283 C.ar    1  UNL1        0.0506
      6 C          61.7506   93.2418    0.7263 C.ar    1  UNL1        0.0144
      7 C          62.6020   94.0480   -0.2092 C.ar    1  UNL1       -0.0026
      8 C          62.0352   94.5311   -1.5113 C.ar    1  UNL1        0.0028
      9 C          62.6703   95.6894   -2.2220 C.ar    1  UNL1        0.0015
     10 C          62.1036   96.1725   -3.5240 C.ar    1  UNL1        0.0178
     11 C          60.9018   95.4974   -4.1154 C.ar    1  UNL1        0.0847
     12 C          60.2667   94.3392   -3.4048 C.ar    1  UNL1        0.1515
     13 C          60.8334   93.8560   -2.1027 C.ar    1  UNL1        0.0382
     14 O          59.0724   93.5303   -3.8164 O.3     1  UNL1       -0.4807
     15 C          58.2182   93.6799   -5.0403 C.3     1  UNL1        0.1466
     16 C          57.3031   93.7430   -6.2272 C.3     1  UNL1        0.0726
     17 C          56.1700   92.7683   -6.3532 C.3     1  UNL1        0.1458
     18 O          55.9519   91.7306   -5.2922 O.3     1  UNL1       -0.3535
     19 C          56.8669   91.6675   -4.1054 C.3     1  UNL1        0.1458
     20 C          58.0000   92.6422   -3.9794 C.3     1  UNL1        0.0726
     21 C          58.3473   94.6754   -6.1549 C.3     1  UNL1        0.1254
     22 C          59.3626   95.7671   -6.3209 C.2     1  UNL1        0.2297
     23 O          59.2225   96.6036   -7.5580 O.2     1  UNL1       -0.2746
     24 N          60.4994   96.1329   -5.4132 N.am    1  UNL1       -0.2814
     25 H          61.0549   96.8903   -5.7083 H       1  UNL1        0.1549
     26 N          61.4659   91.9525    2.9638 N.am    1  UNL1       -0.2791
     27 C          60.1831   92.5239    3.4912 C.2     1  UNL1        0.2690
     28 O          59.7519   93.9013    3.0832 O.2     1  UNL1       -0.2681
     29 H          61.7490   91.0484    3.2316 H       1  UNL1        0.1552
     30 C          59.3317   91.7177    4.4267 C.ar    1  UNL1        0.1562
     31 C          59.9693   90.7315    5.3598 C.ar    1  UNL1        0.0310
     32 C          59.1179   89.9253    6.2953 C.ar    1  UNL1        0.0940
     33 C          57.6288   90.1055    6.2977 C.ar    1  UNL1        0.1260
     34 N          56.9911   91.0917    5.3647 N.ar    1  UNL1       -0.1463
     35 N          57.8425   91.8979    4.4292 N.ar    1  UNL1       -0.1433
     36 C          59.7556   88.9390    7.2284 C.3     1  UNL1        0.4201
     37 F          60.3933   87.9528    8.1614 F       1  UNL1       -0.1658
     38 F          60.5125   90.0531    7.8886 F       1  UNL1       -0.1658
     39 F          58.9986   87.8250    6.5681 F       1  UNL1       -0.1658
@<TRIPOS>BOND
     1     1     2    1
     2     2     3   ar
     3     3     4   ar
     4     4     5   ar
     5     5    26    1
     6    26    27   am
     7    27    28    2
     8    27    30    1
     9    30    31   ar
    10    31    32   ar
    11    32    36    1
    12    36    37    1
    13    36    38    1
    14    36    39    1
    15    32    33   ar
    16    33    34   ar
    17    34    35   ar
    18     5     6   ar
    19     6     7   ar
    20     7     8    1
    21     8     9   ar
    22     9    10   ar
    23    10    11   ar
    24    11    12   ar
    25    12    13   ar
    26    12    14    1
    27    14    15    1
    28    15    16    1
    29    16    17    1
    30    17    18    1
    31    18    19    1
    32    19    20    1
    33    15    21    1
    34    21    22    1
    35    22    23    2
    36    22    24   am
    37     7     2   ar
    38    13     8   ar
    39    20    15    1
    40    35    30   ar
    41    24    11    1
    42    26    29    1
    43    24    25    1
@<TRIPOS>MOLECULE
*****
 39 43 0 0 0
SMALL
GASTEIGER

@<TRIPOS>ATOM
      1 C          59.0374   86.9962    6.3990 C.3     1  UNL1        0.0310
      2 C          59.6435   87.5494    7.6546 C.ar    1  UNL1       -0.0218
      3 C          59.9111   86.6441    8.8204 C.ar    1  UNL1       -0.0030
      4 C          60.5171   87.1975   10.0760 C.ar    1  UNL1        0.0144
      5 C          60.8555   88.6560   10.1659 C.ar    1  UNL1        0.0506
      6 C          60.5879   89.5612    9.0002 C.ar    1  UNL1        0.0144
      7 C          59.9818   89.0079    7.7446 C.ar    1  UNL1       -0.0026
      8 C          59.7142   89.9133    6.5788 C.ar    1  UNL1        0.0028
      9 C          58.3243   90.4161    6.3234 C.ar    1  UNL1        0.0015
     10 C          58.0566   91.3213    5.1577 C.ar    1  UNL1        0.0178
     11 C          59.1788   91.7239    4.2475 C.ar    1  UNL1        0.0847
     12 C          60.5687   91.2211    4.5030 C.ar    1  UNL1        0.1515
     13 C          60.8365   90.3158    5.6687 C.ar    1  UNL1        0.0382
     14 O          61.8212   91.4979    3.7253 O.3     1  UNL1       -0.4807
     15 C          61.9930   92.3460    2.4999 C.3     1  UNL1        0.1466
     16 C          62.2737   93.1675    1.2768 C.3     1  UNL1        0.0726
     17 C          63.6680   93.2452    0.7293 C.3     1  UNL1        0.1458
     18 O          64.7816   92.5013    1.4050 O.3     1  UNL1       -0.3535
     19 C          64.5009   91.6797    2.6282 C.3     1  UNL1        0.1458
     20 C          63.1066   91.6021    3.1756 C.3     1  UNL1        0.0726
     21 C          60.9548   93.1266    1.7498 C.3     1  UNL1        0.1254
     22 C          59.4884   93.2519    2.0396 C.2     1  UNL1        0.2297
     23 O          58.7093   94.1158    1.0926 O.2     1  UNL1       -0.2746
     24 N          58.6980   92.6276    3.1512 N.am    1  UNL1       -0.2814
     25 H          57.7365   92.8391    3.1628 H       1  UNL1        0.1549
     26 N          61.4615   89.2092   11.4215 N.am    1  UNL1       -0.2791
     27 C          62.8027   89.8794   11.3749 C.2     1  UNL1        0.2690
     28 O          63.5378   89.9963   10.0726 O.2     1  UNL1       -0.2681
     29 H          60.9790   89.1325   12.2762 H       1  UNL1        0.1552
     30 C          63.4087   90.4327   12.6305 C.ar    1  UNL1        0.1562
     31 C          63.1661   89.7506   13.9441 C.ar    1  UNL1        0.0310
     32 C          63.7721   90.3038   15.1998 C.ar    1  UNL1        0.0940
     33 C          64.6208   91.5393   15.1417 C.ar    1  UNL1        0.1260
     34 N          64.8634   92.2215   13.8281 N.ar    1  UNL1       -0.1463
     35 N          64.2574   91.6683   12.5724 N.ar    1  UNL1       -0.1433
     36 C          63.5295   89.6216   16.5135 C.3     1  UNL1        0.4201
     37 F          63.2869   88.9394   17.8271 F       1  UNL1       -0.1658
     38 F          63.5462   88.2892   15.8246 F       1  UNL1       -0.1658
     39 F          63.5128   90.9540   17.2023 F       1  UNL1       -0.1658
@<TRIPOS>BOND
     1     1     2    1
     2     2     3   ar
     3     3     4   ar
     4     4     5   ar
     5     5    26    1
     6    26    27   am
     7    27    28    2
     8    27    30    1
     9    30    31   ar
    10    31    32   ar
    11    32    36    1
    12    36    37    1
    13    36    38    1
    14    36    39    1
    15    32    33   ar
    16    33    34   ar
    17    34    35   ar
    18     5     6   ar
    19     6     7   ar
    20     7     8    1
    21     8     9   ar
    22     9    10   ar
    23    10    11   ar
    24    11    12   ar
    25    12    13   ar
    26    12    14    1
    27    14    15    1
    28    15    16    1
    29    16    17    1
    30    17    18    1
    31    18    19    1
    32    19    20    1
    33    15    21    1
    34    21    22    1
    35    22    23    2
    36    22    24   am
    37     7     2   ar
    38    13     8   ar
    39    20    15    1
    40    35    30   ar
    41    24    11    1
    42    26    29    1
    43    24    25    1
