@<TRIPOS>MOLECULE
*****
 34 39 0 0 0
SMALL
GASTEIGER

@<TRIPOS>ATOM
      1 C          64.0108   90.5156   13.1948 C.ar    1  UNL1        0.0198
      2 C          63.6071   91.3689   12.0292 C.ar    1  UNL1        0.0146
      3 C          62.9736   90.7405   10.8234 C.ar    1  UNL1        0.0786
      4 CL         62.5699   91.5939    9.6577 Cl      1  UNL1       -0.0806
      5 C          62.7438   89.2588   10.7834 C.ar    1  UNL1        0.1326
      6 N          62.1451   88.3638    9.7391 N.ar    1  UNL1       -0.1276
      7 N          62.1787   86.9574   10.2595 N.ar    1  UNL1       -0.0596
      8 N          62.7983   86.9831   11.6253 N.ar    1  UNL1       -0.2104
      9 C          63.1476   88.4055   11.9491 C.ar    1  UNL1        0.1046
     10 C          63.7811   89.0339   13.1548 C.ar    1  UNL1        0.0223
     11 C          63.0282   85.7950   12.5117 C.ar    1  UNL1        0.0858
     12 C          63.7007   85.9701   13.8410 C.ar    1  UNL1        0.0206
     13 C          63.9307   84.7820   14.7274 C.ar    1  UNL1        0.0195
     14 C          63.4881   83.4190   14.2845 C.ar    1  UNL1        0.0904
     15 N          63.5792   82.0722   14.9388 N.am    1  UNL1       -0.1594
     16 C          62.9630   81.0649   14.0138 C.2     1  UNL1        0.3478
     17 O          62.8402   79.5920   14.2699 O.2     1  UNL1       -0.2484
     18 N          62.4910   81.7891   12.7878 N.am    1  UNL1       -0.1593
     19 C          62.8156   83.2440   12.9551 C.ar    1  UNL1        0.0918
     20 C          62.5856   84.4319   12.0687 C.ar    1  UNL1        0.0372
     21 N          66.0324   91.7079   14.4743 N.ar    1  UNL1       -0.2448
     22 N          66.2469   92.2313   15.8637 N.ar    1  UNL1       -0.1673
     23 C          64.9914   91.9908   16.6485 C.ar    1  UNL1        0.1217
     24 C          64.0010   91.3189   15.7443 C.ar    1  UNL1        0.0412
     25 C          64.6444   91.1441   14.4006 C.ar    1  UNL1        0.0799
     26 C          67.0306   91.7425   13.3552 C.3     1  UNL1        0.1727
     27 C          66.6345   94.8033   10.0804 C.ar    1  UNL1        0.0875
     28 C          67.1085   93.4170    9.7581 C.ar    1  UNL1        0.0131
     29 C          67.2406   92.3968   10.8497 C.ar    1  UNL1        0.0174
     30 C          66.8986   92.7628   12.2636 C.ar    1  UNL1        0.0837
     31 N          66.4245   94.1489   12.5859 N.ar    1  UNL1       -0.2454
     32 C          66.2925   95.1692   11.4943 C.ar    1  UNL1        0.1087
     33 N          66.3705   96.8436    7.8970 N.1     1  UNL1       -0.1908
     34 C          66.5025   95.8235    8.9888 C.1     1  UNL1        0.1020
@<TRIPOS>BOND
     1    33    34    3
     2    34    27    1
     3    27    28   ar
     4    28    29   ar
     5    29    30   ar
     6    30    26    1
     7    26    21    1
     8    21    22   ar
     9    22    23   ar
    10    23    24   ar
    11    24    25   ar
    12    25     1    1
    13     1     2   ar
    14     2     3   ar
    15     3     4    1
    16     3     5   ar
    17     5     6   ar
    18     6     7   ar
    19     7     8   ar
    20     8    11    1
    21    11    12   ar
    22    12    13   ar
    23    13    14   ar
    24    14    15    2
    25    15    16    1
    26    16    17    2
    27    16    18    1
    28    18    19    2
    29    19    20   ar
    30     8     9   ar
    31     9    10   ar
    32    30    31   ar
    33    31    32   ar
    34    32    27   ar
    35    25    21   ar
    36    10     1   ar
    37     9     5   ar
    38    20    11   ar
    39    19    14   ar
@<TRIPOS>MOLECULE
*****
 34 39 0 0 0
SMALL
GASTEIGER

@<TRIPOS>ATOM
      1 C          62.0815   85.5048   10.5002 C.ar    1  UNL1        0.0198
      2 C          62.5758   84.1872    9.9811 C.ar    1  UNL1        0.0146
      3 C          63.4971   83.3494   10.8174 C.ar    1  UNL1        0.0786
      4 CL         63.9914   82.0318   10.2982 Cl      1  UNL1       -0.0806
      5 C          63.9240   83.8294   12.1729 C.ar    1  UNL1        0.1326
      6 N          64.8171   83.2257   13.2160 N.ar    1  UNL1       -0.1276
      7 N          64.8746   84.1703   14.3798 N.ar    1  UNL1       -0.0596
      8 N          64.0172   85.3577   14.0560 N.ar    1  UNL1       -0.2104
      9 C          63.4297   85.1470   12.6921 C.ar    1  UNL1        0.1046
     10 C          62.5084   85.9847   11.8557 C.ar    1  UNL1        0.0223
     11 C          63.7876   86.5469   14.9408 C.ar    1  UNL1        0.0858
     12 C          63.0615   86.3837   16.2432 C.ar    1  UNL1        0.0206
     13 C          62.8319   87.5730   17.1281 C.ar    1  UNL1        0.0195
     14 C          63.3283   88.9254   16.7106 C.ar    1  UNL1        0.0904
     15 N          63.2505   90.2707   17.3696 N.am    1  UNL1       -0.1594
     16 C          63.9285   91.2653   16.4746 C.2     1  UNL1        0.3478
     17 O          64.0825   92.7327   16.7444 O.2     1  UNL1       -0.2484
     18 N          64.4253   90.5347   15.2623 N.am    1  UNL1       -0.1593
     19 C          64.0544   89.0886   15.4082 C.ar    1  UNL1        0.0918
     20 C          64.2841   87.8994   14.5233 C.ar    1  UNL1        0.0372
     21 N          60.6662   87.7174   10.0038 N.ar    1  UNL1       -0.2448
     22 N          59.7719   88.1770    8.8907 N.ar    1  UNL1       -0.1673
     23 C          59.7131   87.0862    7.8628 C.ar    1  UNL1        0.1217
     24 C          60.5711   85.9524    8.3406 C.ar    1  UNL1        0.0412
     25 C          61.1602   86.3425    9.6638 C.ar    1  UNL1        0.0799
     26 C          61.0068   88.4960   11.2399 C.3     1  UNL1        0.1727
     27 C          64.0874   91.7711   11.0585 C.ar    1  UNL1        0.0875
     28 C          63.4263   91.2928    9.7998 C.ar    1  UNL1        0.0131
     29 C          62.3994   90.2011    9.8603 C.ar    1  UNL1        0.0174
     30 C          62.0337   89.5878   11.1794 C.ar    1  UNL1        0.0837
     31 N          62.6948   90.0661   12.4380 N.ar    1  UNL1       -0.2454
     32 C          63.7217   91.1578   12.3776 C.ar    1  UNL1        0.1087
     33 N          66.1411   93.9546   10.9375 N.1     1  UNL1       -0.1908
     34 C          65.1143   92.8629   10.9980 C.1     1  UNL1        0.1020
@<TRIPOS>BOND
     1    33    34    3
     2    34    27    1
     3    27    28   ar
     4    28    29   ar
     5    29    30   ar
     6    30    26    1
     7    26    21    1
     8    21    22   ar
     9    22    23   ar
    10    23    24   ar
    11    24    25   ar
    12    25     1    1
    13     1     2   ar
    14     2     3   ar
    15     3     4    1
    16     3     5   ar
    17     5     6   ar
    18     6     7   ar
    19     7     8   ar
    20     8    11    1
    21    11    12   ar
    22    12    13   ar
    23    13    14   ar
    24    14    15    2
    25    15    16    1
    26    16    17    2
    27    16    18    1
    28    18    19    2
    29    19    20   ar
    30     8     9   ar
    31     9    10   ar
    32    30    31   ar
    33    31    32   ar
    34    32    27   ar
    35    25    21   ar
    36    10     1   ar
    37     9     5   ar
    38    20    11   ar
    39    19    14   ar
@<TRIPOS>MOLECULE
*****
 34 39 0 0 0
SMALL
GASTEIGER

@<TRIPOS>ATOM
      1 C          63.9678   89.3445   14.9032 C.ar    1  UNL1        0.0198
      2 C          64.9532   90.4090   15.2850 C.ar    1  UNL1        0.0146
      3 C          65.3079   91.4887   14.3059 C.ar    1  UNL1        0.0786
      4 CL         66.2934   92.5532   14.6878 Cl      1  UNL1       -0.0806
      5 C          64.6771   91.5039   12.9451 C.ar    1  UNL1        0.1326
      6 N          64.8301   92.4340   11.7783 N.ar    1  UNL1       -0.1276
      7 N          63.9392   91.9443   10.6754 N.ar    1  UNL1       -0.0596
      8 N          63.2356   90.7116   11.1605 N.ar    1  UNL1       -0.2104
      9 C          63.6917   90.4393   12.5633 C.ar    1  UNL1        0.1046
     10 C          63.3371   89.3597   13.5423 C.ar    1  UNL1        0.0223
     11 C          62.2492   89.8945   10.3799 C.ar    1  UNL1        0.0858
     12 C          60.8648   90.4193   10.1388 C.ar    1  UNL1        0.0206
     13 C          59.8783   89.6023    9.3582 C.ar    1  UNL1        0.0195
     14 C          60.2762   88.2605    8.8187 C.ar    1  UNL1        0.0904
     15 N          59.5252   87.2372    8.0193 N.am    1  UNL1       -0.1594
     16 C          60.4454   86.0800    7.7663 C.2     1  UNL1        0.3478
     17 O          60.1056   84.8336    7.0041 O.2     1  UNL1       -0.2484
     18 N          61.7652   86.3880    8.4094 N.am    1  UNL1       -0.1593
     19 C          61.6606   87.7357    9.0598 C.ar    1  UNL1        0.0918
     20 C          62.6471   88.5526    9.8404 C.ar    1  UNL1        0.0372
     21 N          63.9107   86.8027   15.7285 N.ar    1  UNL1       -0.2448
     22 N          63.3800   86.0920   16.9382 N.ar    1  UNL1       -0.1673
     23 C          62.7544   87.1149   17.8395 C.ar    1  UNL1        0.1217
     24 C          62.8985   88.4577   17.1869 C.ar    1  UNL1        0.0412
     25 C          63.6131   88.2648   15.8822 C.ar    1  UNL1        0.0799
     26 C          64.6152   86.1635   14.5687 C.3     1  UNL1        0.1727
     27 C          63.3131   82.1145   13.0991 C.ar    1  UNL1        0.0875
     28 C          63.1223   83.3240   12.2325 C.ar    1  UNL1        0.0131
     29 C          63.5563   84.6737   12.7224 C.ar    1  UNL1        0.0174
     30 C          64.1812   84.8138   14.0788 C.ar    1  UNL1        0.0837
     31 N          64.3720   83.6044   14.9454 N.ar    1  UNL1       -0.2454
     32 C          63.9379   82.2547   14.4555 C.ar    1  UNL1        0.1087
     33 N          62.4450   79.4153   12.1191 N.1     1  UNL1       -0.1908
     34 C          62.8790   80.7649   12.6092 C.1     1  UNL1        0.1020
@<TRIPOS>BOND
     1    33    34    3
     2    34    27    1
     3    27    28   ar
     4    28    29   ar
     5    29    30   ar
     6    30    26    1
     7    26    21    1
     8    21    22   ar
     9    22    23   ar
    10    23    24   ar
    11    24    25   ar
    12    25     1    1
    13     1     2   ar
    14     2     3   ar
    15     3     4    1
    16     3     5   ar
    17     5     6   ar
    18     6     7   ar
    19     7     8   ar
    20     8    11    1
    21    11    12   ar
    22    12    13   ar
    23    13    14   ar
    24    14    15    2
    25    15    16    1
    26    16    17    2
    27    16    18    1
    28    18    19    2
    29    19    20   ar
    30     8     9   ar
    31     9    10   ar
    32    30    31   ar
    33    31    32   ar
    34    32    27   ar
    35    25    21   ar
    36    10     1   ar
    37     9     5   ar
    38    20    11   ar
    39    19    14   ar
@<TRIPOS>MOLECULE
*****
 34 39 0 0 0
SMALL
GASTEIGER

@<TRIPOS>ATOM
      1 C          63.4117   89.1014   13.3014 C.ar    1  UNL1        0.0198
      2 C          63.4362   89.6981   14.6773 C.ar    1  UNL1        0.0146
      3 C          63.4808   88.8048   15.8816 C.ar    1  UNL1        0.0786
      4 CL         63.5052   89.4016   17.2575 Cl      1  UNL1       -0.0806
      5 C          63.5009   87.3148   15.7097 C.ar    1  UNL1        0.1326
      6 N          63.5440   86.1906   16.7018 N.ar    1  UNL1       -0.1276
      7 N          63.5462   84.8991   15.9389 N.ar    1  UNL1       -0.0596
      8 N          63.5045   85.2251   14.4754 N.ar    1  UNL1       -0.2104
      9 C          63.4765   86.7181   14.3337 C.ar    1  UNL1        0.1046
     10 C          63.4319   87.6114   13.1295 C.ar    1  UNL1        0.0223
     11 C          63.4928   84.2324   13.3509 C.ar    1  UNL1        0.0858
     12 C          63.8857   84.6608   11.9682 C.ar    1  UNL1        0.0206
     13 C          63.8740   83.6681   10.8437 C.ar    1  UNL1        0.0195
     14 C          63.4694   82.2470   11.1020 C.ar    1  UNL1        0.0904
     15 N          63.3622   81.0539   10.1991 N.am    1  UNL1       -0.1594
     16 C          62.9031   79.8882   11.0239 C.2     1  UNL1        0.3478
     17 O          62.6628   78.4946   10.5238 O.2     1  UNL1       -0.2484
     18 N          62.7265   80.3608   12.4366 N.am    1  UNL1       -0.1593
     19 C          63.0765   81.8186   12.4849 C.ar    1  UNL1        0.0918
     20 C          63.0882   82.8112   13.6093 C.ar    1  UNL1        0.0372
     21 N          62.3532   89.9365   10.9933 N.ar    1  UNL1       -0.2448
     22 N          62.6881   91.0088    9.9993 N.ar    1  UNL1       -0.1673
     23 C          63.9090   91.7297   10.4889 C.ar    1  UNL1        0.1217
     24 C          64.3287   91.1030   11.7854 C.ar    1  UNL1        0.0412
     25 C          63.3671   89.9947   12.0971 C.ar    1  UNL1        0.0799
     26 C          61.2058   88.9748   10.8998 C.3     1  UNL1        0.1727
     27 C          61.1518   85.8439    7.6681 C.ar    1  UNL1        0.0875
     28 C          62.3677   86.0105    8.5307 C.ar    1  UNL1        0.0131
     29 C          62.3857   87.0542    9.6079 C.ar    1  UNL1        0.0174
     30 C          61.1878   87.9312    9.8225 C.ar    1  UNL1        0.0837
     31 N          59.9720   87.7645    8.9599 N.ar    1  UNL1       -0.2454
     32 C          59.9540   86.7209    7.8827 C.ar    1  UNL1        0.1087
     33 N          61.1160   83.7565    5.5136 N.1     1  UNL1       -0.1908
     34 C          61.1339   84.8002    6.5909 C.1     1  UNL1        0.1020
@<TRIPOS>BOND
     1    33    34    3
     2    34    27    1
     3    27    28   ar
     4    28    29   ar
     5    29    30   ar
     6    30    26    1
     7    26    21    1
     8    21    22   ar
     9    22    23   ar
    10    23    24   ar
    11    24    25   ar
    12    25     1    1
    13     1     2   ar
    14     2     3   ar
    15     3     4    1
    16     3     5   ar
    17     5     6   ar
    18     6     7   ar
    19     7     8   ar
    20     8    11    1
    21    11    12   ar
    22    12    13   ar
    23    13    14   ar
    24    14    15    2
    25    15    16    1
    26    16    17    2
    27    16    18    1
    28    18    19    2
    29    19    20   ar
    30     8     9   ar
    31     9    10   ar
    32    30    31   ar
    33    31    32   ar
    34    32    27   ar
    35    25    21   ar
    36    10     1   ar
    37     9     5   ar
    38    20    11   ar
    39    19    14   ar
@<TRIPOS>MOLECULE
*****
 34 39 0 0 0
SMALL
GASTEIGER

@<TRIPOS>ATOM
      1 C          61.6126   86.7792    9.1694 C.ar    1  UNL1        0.0198
      2 C          62.0613   86.1638    7.8773 C.ar    1  UNL1        0.0146
      3 C          62.8638   84.8964    7.8889 C.ar    1  UNL1        0.0786
      4 CL         63.3126   84.2810    6.5967 Cl      1  UNL1       -0.0806
      5 C          63.2174   84.2447    9.1928 C.ar    1  UNL1        0.1326
      6 N          63.9909   83.0007    9.5158 N.ar    1  UNL1       -0.1276
      7 N          64.0201   82.8475   11.0077 N.ar    1  UNL1       -0.0596
      8 N          63.2647   83.9966   11.6067 N.ar    1  UNL1       -0.2104
      9 C          62.7686   84.8602   10.4850 C.ar    1  UNL1        0.1046
     10 C          61.9662   86.1274   10.4733 C.ar    1  UNL1        0.0223
     11 C          63.0442   84.2396   13.0704 C.ar    1  UNL1        0.0858
     12 C          62.5054   83.1424   13.9398 C.ar    1  UNL1        0.0206
     13 C          62.2848   83.3853   15.4036 C.ar    1  UNL1        0.0195
     14 C          62.6030   84.7253   15.9977 C.ar    1  UNL1        0.0904
     15 N          62.4901   85.2555   17.3964 N.am    1  UNL1       -0.1594
     16 C          62.9591   86.6803   17.3913 C.2     1  UNL1        0.3478
     17 O          63.0155   87.5942   18.5794 O.2     1  UNL1       -0.2484
     18 N          63.3619   87.0307   15.9894 N.am    1  UNL1       -0.1593
     19 C          63.1418   85.8225   15.1281 C.ar    1  UNL1        0.0918
     20 C          63.3623   85.5796   13.6645 C.ar    1  UNL1        0.0372
     21 N          60.6887   89.0237   10.2893 N.ar    1  UNL1       -0.2448
     22 N          59.7917   90.1402    9.8434 N.ar    1  UNL1       -0.1673
     23 C          59.3588   89.8530    8.4362 C.ar    1  UNL1        0.1217
     24 C          59.9881   88.5591    8.0125 C.ar    1  UNL1        0.0412
     25 C          60.8101   88.0465    9.1578 C.ar    1  UNL1        0.0799
     26 C          61.3485   88.9051   11.6312 C.3     1  UNL1        0.1727
     27 C          64.7077   91.6863   12.7404 C.ar    1  UNL1        0.0875
     28 C          64.2272   91.6193   11.3209 C.ar    1  UNL1        0.0131
     29 C          63.1074   90.6922   10.9512 C.ar    1  UNL1        0.0174
     30 C          62.4682   89.8322   12.0009 C.ar    1  UNL1        0.0837
     31 N          62.9488   89.8993   13.4203 N.ar    1  UNL1       -0.2454
     32 C          64.0685   90.8264   13.7900 C.ar    1  UNL1        0.1087
     33 N          66.9472   93.5406   13.4797 N.1     1  UNL1       -0.1908
     34 C          65.8275   92.6134   13.1100 C.1     1  UNL1        0.1020
@<TRIPOS>BOND
     1    33    34    3
     2    34    27    1
     3    27    28   ar
     4    28    29   ar
     5    29    30   ar
     6    30    26    1
     7    26    21    1
     8    21    22   ar
     9    22    23   ar
    10    23    24   ar
    11    24    25   ar
    12    25     1    1
    13     1     2   ar
    14     2     3   ar
    15     3     4    1
    16     3     5   ar
    17     5     6   ar
    18     6     7   ar
    19     7     8   ar
    20     8    11    1
    21    11    12   ar
    22    12    13   ar
    23    13    14   ar
    24    14    15    2
    25    15    16    1
    26    16    17    2
    27    16    18    1
    28    18    19    2
    29    19    20   ar
    30     8     9   ar
    31     9    10   ar
    32    30    31   ar
    33    31    32   ar
    34    32    27   ar
    35    25    21   ar
    36    10     1   ar
    37     9     5   ar
    38    20    11   ar
    39    19    14   ar
@<TRIPOS>MOLECULE
*****
 34 39 0 0 0
SMALL
GASTEIGER

@<TRIPOS>ATOM
      1 C          63.1552   86.4423   12.6688 C.ar    1  UNL1        0.0198
      2 C          62.3150   86.2592   11.4399 C.ar    1  UNL1        0.0146
      3 C          61.9342   87.4477   10.6077 C.ar    1  UNL1        0.0786
      4 CL         61.0939   87.2645    9.3787 Cl      1  UNL1       -0.0806
      5 C          62.3937   88.8193   11.0046 C.ar    1  UNL1        0.1326
      6 N          62.1772   90.1684   10.3858 N.ar    1  UNL1       -0.1276
      7 N          62.8837   91.1854   11.2324 N.ar    1  UNL1       -0.0596
      8 N          63.5368   90.4648   12.3744 N.ar    1  UNL1       -0.2104
      9 C          63.2339   89.0024   12.2336 C.ar    1  UNL1        0.1046
     10 C          63.6147   87.8139   13.0657 C.ar    1  UNL1        0.0223
     11 C          64.3500   91.0957   13.4655 C.ar    1  UNL1        0.0858
     12 C          63.8688   91.0435   14.8853 C.ar    1  UNL1        0.0206
     13 C          64.6820   91.6744   15.9765 C.ar    1  UNL1        0.0195
     14 C          65.9762   92.3576   15.6479 C.ar    1  UNL1        0.0904
     15 N          66.9848   93.0631   16.5054 N.am    1  UNL1       -0.1594
     16 C          68.0893   93.5513   15.6156 C.2     1  UNL1        0.3478
     17 O          69.3060   94.3100   16.0558 O.2     1  UNL1       -0.2484
     18 N          67.7633   93.1476   14.2081 N.am    1  UNL1       -0.1593
     19 C          66.4574   92.4098   14.2281 C.ar    1  UNL1        0.0918
     20 C          65.6443   91.7789   13.1369 C.ar    1  UNL1        0.0372
     21 N          63.3474   83.8149   13.1217 N.ar    1  UNL1       -0.2448
     22 N          63.8672   82.9674   14.2449 N.ar    1  UNL1       -0.1673
     23 C          64.3771   83.8825   15.3185 C.ar    1  UNL1        0.1217
     24 C          64.1724   85.2956   14.8588 C.ar    1  UNL1        0.0412
     25 C          63.5361   85.2538   13.5011 C.ar    1  UNL1        0.0799
     26 C          62.7448   83.3118   11.8435 C.3     1  UNL1        0.1727
     27 C          62.8464   78.9162   10.8853 C.ar    1  UNL1        0.0875
     28 C          63.1253   79.9247    9.8105 C.ar    1  UNL1        0.0131
     29 C          63.0914   81.3900   10.1299 C.ar    1  UNL1        0.0174
     30 C          62.7787   81.8465   11.5241 C.ar    1  UNL1        0.0837
     31 N          62.4998   80.8380   12.5988 N.ar    1  UNL1       -0.2454
     32 C          62.5336   79.3728   12.2794 C.ar    1  UNL1        0.1087
     33 N          62.9140   75.9858   10.2464 N.1     1  UNL1       -0.1908
     34 C          62.8803   77.4510   10.5659 C.1     1  UNL1        0.1020
@<TRIPOS>BOND
     1    33    34    3
     2    34    27    1
     3    27    28   ar
     4    28    29   ar
     5    29    30   ar
     6    30    26    1
     7    26    21    1
     8    21    22   ar
     9    22    23   ar
    10    23    24   ar
    11    24    25   ar
    12    25     1    1
    13     1     2   ar
    14     2     3   ar
    15     3     4    1
    16     3     5   ar
    17     5     6   ar
    18     6     7   ar
    19     7     8   ar
    20     8    11    1
    21    11    12   ar
    22    12    13   ar
    23    13    14   ar
    24    14    15    2
    25    15    16    1
    26    16    17    2
    27    16    18    1
    28    18    19    2
    29    19    20   ar
    30     8     9   ar
    31     9    10   ar
    32    30    31   ar
    33    31    32   ar
    34    32    27   ar
    35    25    21   ar
    36    10     1   ar
    37     9     5   ar
    38    20    11   ar
    39    19    14   ar
@<TRIPOS>MOLECULE
*****
 34 39 0 0 0
SMALL
GASTEIGER

@<TRIPOS>ATOM
      1 C          62.8303   89.9575   12.1392 C.ar    1  UNL1        0.0198
      2 C          63.0203   88.9273   13.2126 C.ar    1  UNL1        0.0146
      3 C          64.1670   89.0467   14.1723 C.ar    1  UNL1        0.0786
      4 CL         64.3570   88.0164   15.2458 Cl      1  UNL1       -0.0806
      5 C          65.1236   90.1965   14.0583 C.ar    1  UNL1        0.1326
      6 N          66.3373   90.5750   14.8544 N.ar    1  UNL1       -0.1276
      7 N          66.8973   91.8392   14.2729 N.ar    1  UNL1       -0.0596
      8 N          66.0297   92.2420   13.1174 N.ar    1  UNL1       -0.2104
      9 C          64.9335   91.2267   12.9848 C.ar    1  UNL1        0.1046
     10 C          63.7869   91.1072   12.0252 C.ar    1  UNL1        0.0223
     11 C          66.2243   93.4483   12.2473 C.ar    1  UNL1        0.0858
     12 C          66.1579   94.8225   12.8448 C.ar    1  UNL1        0.0206
     13 C          66.3524   96.0289   11.9748 C.ar    1  UNL1        0.0195
     14 C          66.6133   95.8609   10.5073 C.ar    1  UNL1        0.0904
     15 N          66.8429   96.8557    9.4083 N.am    1  UNL1       -0.1594
     16 C          67.0511   96.0963    8.1316 C.2     1  UNL1        0.3478
     17 O          67.3141   96.6958    6.7820 O.2     1  UNL1       -0.2484
     18 N          66.9503   94.6321    8.4416 N.am    1  UNL1       -0.1593
     19 C          66.6797   94.4866    9.9098 C.ar    1  UNL1        0.0918
     20 C          66.4852   93.2803   10.7798 C.ar    1  UNL1        0.0372
     21 N          61.5957   88.8845   10.0250 N.ar    1  UNL1       -0.2448
     22 N          60.2812   89.1084    9.3379 N.ar    1  UNL1       -0.1673
     23 C          59.5567   90.2003   10.0678 C.ar    1  UNL1        0.1217
     24 C          60.4234   90.6513   11.2060 C.ar    1  UNL1        0.0412
     25 C          61.6835   89.8381   11.1795 C.ar    1  UNL1        0.0799
     26 C          62.6391   87.8829    9.6273 C.3     1  UNL1        0.1727
     27 C          62.6678   83.7958   11.5099 C.ar    1  UNL1        0.0875
     28 C          63.0046   83.9546   10.0568 C.ar    1  UNL1        0.0131
     29 C          62.9950   85.3170    9.4292 C.ar    1  UNL1        0.0174
     30 C          62.6486   86.5205   10.2548 C.ar    1  UNL1        0.0837
     31 N          62.3119   86.3617   11.7079 N.ar    1  UNL1       -0.2454
     32 C          62.3214   84.9993   12.3354 C.ar    1  UNL1        0.1087
     33 N          62.6871   81.0709   12.7647 N.1     1  UNL1       -0.1908
     34 C          62.6774   82.4334   12.1373 C.1     1  UNL1        0.1020
@<TRIPOS>BOND
     1    33    34    3
     2    34    27    1
     3    27    28   ar
     4    28    29   ar
     5    29    30   ar
     6    30    26    1
     7    26    21    1
     8    21    22   ar
     9    22    23   ar
    10    23    24   ar
    11    24    25   ar
    12    25     1    1
    13     1     2   ar
    14     2     3   ar
    15     3     4    1
    16     3     5   ar
    17     5     6   ar
    18     6     7   ar
    19     7     8   ar
    20     8    11    1
    21    11    12   ar
    22    12    13   ar
    23    13    14   ar
    24    14    15    2
    25    15    16    1
    26    16    17    2
    27    16    18    1
    28    18    19    2
    29    19    20   ar
    30     8     9   ar
    31     9    10   ar
    32    30    31   ar
    33    31    32   ar
    34    32    27   ar
    35    25    21   ar
    36    10     1   ar
    37     9     5   ar
    38    20    11   ar
    39    19    14   ar
@<TRIPOS>MOLECULE
*****
 34 39 0 0 0
SMALL
GASTEIGER

@<TRIPOS>ATOM
      1 C          63.5881   90.0498   13.6631 C.ar    1  UNL1        0.0198
      2 C          63.6441   90.9787   14.8394 C.ar    1  UNL1        0.0146
      3 C          63.5707   90.4292   16.2333 C.ar    1  UNL1        0.0786
      4 CL         63.6267   91.3582   17.4097 Cl      1  UNL1       -0.0806
      5 C          63.4412   88.9507   16.4506 C.ar    1  UNL1        0.1326
      6 N          63.3471   88.1241   17.6988 N.ar    1  UNL1       -0.1276
      7 N          63.2329   86.6844   17.2937 N.ar    1  UNL1       -0.0596
      8 N          63.2564   86.6211   15.7953 N.ar    1  UNL1       -0.2104
      9 C          63.3851   88.0217   15.2741 C.ar    1  UNL1        0.1046
     10 C          63.4586   88.5713   13.8804 C.ar    1  UNL1        0.0223
     11 C          63.1669   85.3758   14.9639 C.ar    1  UNL1        0.0858
     12 C          62.4145   84.1839   15.4771 C.ar    1  UNL1        0.0206
     13 C          62.3250   82.9385   14.6457 C.ar    1  UNL1        0.0195
     14 C          62.9878   82.8851   13.3013 C.ar    1  UNL1        0.0904
     15 N          63.0701   81.8036   12.2650 N.am    1  UNL1       -0.1594
     16 C          63.8733   82.3271   11.1115 C.2     1  UNL1        0.3478
     17 O          64.2043   81.5772    9.8552 O.2     1  UNL1       -0.2484
     18 N          64.2875   83.7322   11.4347 N.am    1  UNL1       -0.1593
     19 C          63.7402   84.0770   12.7881 C.ar    1  UNL1        0.0918
     20 C          63.8297   85.3223   13.6193 C.ar    1  UNL1        0.0372
     21 N          62.7623   90.2294   11.1271 N.ar    1  UNL1       -0.2448
     22 N          63.1922   91.0168    9.9249 N.ar    1  UNL1       -0.1673
     23 C          64.3570   91.8734   10.3241 C.ar    1  UNL1        0.1217
     24 C          64.6471   91.6154   11.7729 C.ar    1  UNL1        0.0412
     25 C          63.6615   90.5994   12.2692 C.ar    1  UNL1        0.0799
     26 C          61.6318   89.2449   11.1782 C.3     1  UNL1        0.1727
     27 C          61.2395   86.1014    7.9822 C.ar    1  UNL1        0.0875
     28 C          60.2282   87.2053    8.0766 C.ar    1  UNL1        0.0131
     29 C          60.3590   88.2531    9.1419 C.ar    1  UNL1        0.0174
     30 C          61.5010   88.1970   10.1128 C.ar    1  UNL1        0.0837
     31 N          62.5123   87.0932   10.0184 N.ar    1  UNL1       -0.2454
     32 C          62.3815   86.0454    8.9531 C.ar    1  UNL1        0.1087
     33 N          60.9780   84.0058    5.8514 N.1     1  UNL1       -0.1908
     34 C          61.1087   85.0536    6.9168 C.1     1  UNL1        0.1020
@<TRIPOS>BOND
     1    33    34    3
     2    34    27    1
     3    27    28   ar
     4    28    29   ar
     5    29    30   ar
     6    30    26    1
     7    26    21    1
     8    21    22   ar
     9    22    23   ar
    10    23    24   ar
    11    24    25   ar
    12    25     1    1
    13     1     2   ar
    14     2     3   ar
    15     3     4    1
    16     3     5   ar
    17     5     6   ar
    18     6     7   ar
    19     7     8   ar
    20     8    11    1
    21    11    12   ar
    22    12    13   ar
    23    13    14   ar
    24    14    15    2
    25    15    16    1
    26    16    17    2
    27    16    18    1
    28    18    19    2
    29    19    20   ar
    30     8     9   ar
    31     9    10   ar
    32    30    31   ar
    33    31    32   ar
    34    32    27   ar
    35    25    21   ar
    36    10     1   ar
    37     9     5   ar
    38    20    11   ar
    39    19    14   ar
