@<TRIPOS>MOLECULE
*****
 29 32 0 0 0
SMALL
GASTEIGER

@<TRIPOS>ATOM
      1 C          64.1901   90.6536   14.0944 C.ar    1  UNL1        0.0516
      2 C          65.5211   91.2368   14.4665 C.ar    1  UNL1        0.0147
      3 C          66.3063   92.0189   13.4557 C.ar    1  UNL1        0.0010
      4 C          65.7604   92.2180   12.0727 C.ar    1  UNL1       -0.0014
      5 C          64.4295   91.6348   11.7006 C.ar    1  UNL1        0.0010
      6 C          63.6443   90.8527   12.7115 C.ar    1  UNL1        0.0147
      7 C          66.5456   93.0001   11.0619 C.2     1  UNL1        0.0158
      8 C          67.4085   92.2844   10.0654 C.2     1  UNL1        0.0487
      9 C          68.1937   93.0665    9.0546 C.2     1  UNL1        0.2355
     10 N          68.1159   94.5645    9.0403 N.2     1  UNL1       -0.0325
     11 C          67.2530   95.2802   10.0368 C.2     1  UNL1        0.3799
     12 N          66.9791   96.7374   10.2637 N.2     1  UNL1       -0.0106
     13 C          66.0247   96.8559   11.4148 C.2     1  UNL1        0.3351
     14 N          65.7087   95.4719   11.8993 N.2     1  UNL1       -0.2103
     15 C          66.4678   94.4980   11.0476 C.3     1  UNL1        0.2404
     16 O          64.9865   87.8391   14.7610 O.2     1  UNL1       -0.2525
     17 C          63.8032   88.4642   15.4385 C.2     1  UNL1        0.3047
     18 N          63.0181   87.6821   16.4493 N.am    1  UNL1       -0.2846
     19 N          63.4050   89.8715   15.1052 N.am    1  UNL1       -0.2683
     20 H          62.2414   88.0924   16.8940 H       1  UNL1        0.1513
     21 H          62.6284   90.2818   15.5498 H       1  UNL1        0.1564
     22 C          63.4162   86.2748   16.7827 C.3     1  UNL1        0.1177
     23 C          63.3894   85.2162   15.7203 C.ar    1  UNL1       -0.0025
     24 C          62.1635   84.3721   15.5335 C.ar    1  UNL1       -0.0021
     25 C          62.1365   83.3135   14.4712 C.ar    1  UNL1        0.0064
     26 C          63.3354   83.0988   13.5957 C.ar    1  UNL1        0.0345
     27 BR         63.3084   82.0402   12.5334 Br      1  UNL1       -0.0490
     28 C          64.5613   83.9428   13.7825 C.ar    1  UNL1        0.0064
     29 C          64.5883   85.0015   14.8448 C.ar    1  UNL1       -0.0021
@<TRIPOS>BOND
     1    16    17    2
     2    17    18   am
     3    18    22    1
     4    22    23    1
     5    23    24   ar
     6    24    25   ar
     7    25    26   ar
     8    26    27    1
     9    26    28   ar
    10    28    29   ar
    11    17    19   am
    12    19     1    1
    13     1     2   ar
    14     2     3   ar
    15     3     4   ar
    16     4     7    1
    17     7     8    2
    18     8     9    1
    19     9    10    2
    20    10    11    1
    21    11    12    2
    22    12    13    1
    23    13    14    2
    24    14    15    1
    25     4     5   ar
    26     5     6   ar
    27    29    23   ar
    28     6     1   ar
    29    15     7    1
    30    15    11    1
    31    18    20    1
    32    19    21    1
@<TRIPOS>MOLECULE
*****
 29 32 0 0 0
SMALL
GASTEIGER

@<TRIPOS>ATOM
      1 C          64.0466   90.5989   14.1136 C.ar    1  UNL1        0.0516
      2 C          65.1963   91.4035   14.6437 C.ar    1  UNL1        0.0147
      3 C          65.8838   92.4016   13.7600 C.ar    1  UNL1        0.0010
      4 C          65.4217   92.5952   12.3461 C.ar    1  UNL1       -0.0014
      5 C          64.2720   91.7906   11.8159 C.ar    1  UNL1        0.0010
      6 C          63.5845   90.7925   12.6998 C.ar    1  UNL1        0.0147
      7 C          66.1092   93.5933   11.4623 C.2     1  UNL1        0.0158
      8 C          65.8138   95.0563   11.6119 C.2     1  UNL1        0.0487
      9 C          66.5013   96.0544   10.7282 C.2     1  UNL1        0.2355
     10 N          67.4844   95.5896    9.6949 N.2     1  UNL1       -0.0325
     11 C          67.7798   94.1266    9.5453 C.2     1  UNL1        0.3799
     12 N          68.6942   93.3766    8.6228 N.2     1  UNL1       -0.0106
     13 C          68.5718   91.9148    8.9363 C.2     1  UNL1        0.3351
     14 N          67.5817   91.7615   10.0527 N.2     1  UNL1       -0.2103
     15 C          67.0922   93.1285   10.4291 C.3     1  UNL1        0.2404
     16 O          65.2501   87.8823   14.5275 O.2     1  UNL1       -0.2525
     17 C          63.9608   88.2424   15.2043 C.2     1  UNL1        0.3047
     18 N          63.2733   87.2443   16.0880 N.am    1  UNL1       -0.2846
     19 N          63.3591   89.6008   14.9973 N.am    1  UNL1       -0.2683
     20 H          62.4271   87.4808   16.5322 H       1  UNL1        0.1513
     21 H          62.5129   89.8373   15.4415 H       1  UNL1        0.1564
     22 C          63.8750   85.8859   16.2950 C.3     1  UNL1        0.1177
     23 C          63.6259   84.7952   15.2960 C.ar    1  UNL1       -0.0025
     24 C          64.5338   84.6411   14.1119 C.ar    1  UNL1       -0.0021
     25 C          64.2848   83.5504   13.1128 C.ar    1  UNL1        0.0064
     26 C          63.1279   82.6137   13.2977 C.ar    1  UNL1        0.0345
     27 BR         62.8788   81.5230   12.2985 Br      1  UNL1       -0.0490
     28 C          62.2200   82.7678   14.4817 C.ar    1  UNL1        0.0064
     29 C          62.4690   83.8586   15.4809 C.ar    1  UNL1       -0.0021
@<TRIPOS>BOND
     1    16    17    2
     2    17    18   am
     3    18    22    1
     4    22    23    1
     5    23    24   ar
     6    24    25   ar
     7    25    26   ar
     8    26    27    1
     9    26    28   ar
    10    28    29   ar
    11    17    19   am
    12    19     1    1
    13     1     2   ar
    14     2     3   ar
    15     3     4   ar
    16     4     7    1
    17     7     8    2
    18     8     9    1
    19     9    10    2
    20    10    11    1
    21    11    12    2
    22    12    13    1
    23    13    14    2
    24    14    15    1
    25     4     5   ar
    26     5     6   ar
    27    29    23   ar
    28     6     1   ar
    29    15     7    1
    30    15    11    1
    31    18    20    1
    32    19    21    1
@<TRIPOS>MOLECULE
*****
 29 32 0 0 0
SMALL
GASTEIGER

@<TRIPOS>ATOM
      1 C          60.4110   86.9045    8.6206 C.ar    1  UNL1        0.0516
      2 C          60.0536   87.3032   10.0219 C.ar    1  UNL1        0.0147
      3 C          60.8448   86.7688   11.1786 C.ar    1  UNL1        0.0010
      4 C          61.9936   85.8356   10.9344 C.ar    1  UNL1       -0.0014
      5 C          62.3511   85.4369    9.5332 C.ar    1  UNL1        0.0010
      6 C          61.5598   85.9713    8.3764 C.ar    1  UNL1        0.0147
      7 C          62.7848   85.3012   12.0912 C.2     1  UNL1        0.0158
      8 C          62.9201   83.8203   12.2871 C.2     1  UNL1        0.0487
      9 C          63.7113   83.2859   13.4439 C.2     1  UNL1        0.2355
     10 N          64.3673   84.2325   14.4050 N.2     1  UNL1       -0.0325
     11 C          64.2321   85.7135   14.2092 C.2     1  UNL1        0.3799
     12 N          64.7625   86.8813   14.9869 N.2     1  UNL1       -0.0106
     13 C          64.2991   88.1374   14.3106 C.2     1  UNL1        0.3351
     14 N          63.4823   87.7460   13.1150 N.2     1  UNL1       -0.2103
     15 C          63.4408   86.2478   13.0523 C.3     1  UNL1        0.2404
     16 O          60.3798   89.8511    8.0583 O.2     1  UNL1       -0.2525
     17 C          59.6042   88.9122    7.1826 C.2     1  UNL1        0.3047
     18 N          58.8129   89.4466    6.0258 N.am    1  UNL1       -0.2846
     19 N          59.6198   87.4388    7.4638 N.am    1  UNL1       -0.2683
     20 H          58.3039   88.8303    5.4511 H       1  UNL1        0.1513
     21 H          59.1107   86.8226    6.8891 H       1  UNL1        0.1564
     22 C          58.7973   90.9200    5.7446 C.3     1  UNL1        0.1177
     23 C          59.6979   91.4918    4.6902 C.ar    1  UNL1       -0.0025
     24 C          61.1363   91.0711    4.6237 C.ar    1  UNL1       -0.0021
     25 C          62.0370   91.6428    3.5694 C.ar    1  UNL1        0.0064
     26 C          61.4995   92.6353    2.5815 C.ar    1  UNL1        0.0345
     27 BR         62.4003   93.2071    1.5271 Br      1  UNL1       -0.0490
     28 C          60.0613   93.0561    2.6479 C.ar    1  UNL1        0.0064
     29 C          59.1605   92.4843    3.7023 C.ar    1  UNL1       -0.0021
@<TRIPOS>BOND
     1    16    17    2
     2    17    18   am
     3    18    22    1
     4    22    23    1
     5    23    24   ar
     6    24    25   ar
     7    25    26   ar
     8    26    27    1
     9    26    28   ar
    10    28    29   ar
    11    17    19   am
    12    19     1    1
    13     1     2   ar
    14     2     3   ar
    15     3     4   ar
    16     4     7    1
    17     7     8    2
    18     8     9    1
    19     9    10    2
    20    10    11    1
    21    11    12    2
    22    12    13    1
    23    13    14    2
    24    14    15    1
    25     4     5   ar
    26     5     6   ar
    27    29    23   ar
    28     6     1   ar
    29    15     7    1
    30    15    11    1
    31    18    20    1
    32    19    21    1
@<TRIPOS>MOLECULE
*****
 29 32 0 0 0
SMALL
GASTEIGER

@<TRIPOS>ATOM
      1 C          60.5900   86.7566    8.7699 C.ar    1  UNL1        0.0516
      2 C          60.2052   87.1565   10.1635 C.ar    1  UNL1        0.0147
      3 C          60.9859   86.6388   11.3349 C.ar    1  UNL1        0.0010
      4 C          62.1514   85.7210   11.1129 C.ar    1  UNL1       -0.0014
      5 C          62.5362   85.3210    9.7194 C.ar    1  UNL1        0.0010
      6 C          61.7555   85.8388    8.5479 C.ar    1  UNL1        0.0147
      7 C          62.9321   85.2032   12.2844 C.2     1  UNL1        0.0158
      8 C          63.5690   86.1635   13.2448 C.2     1  UNL1        0.0487
      9 C          64.3496   85.6458   14.4162 C.2     1  UNL1        0.2355
     10 N          64.4935   84.1677   14.6275 N.2     1  UNL1       -0.0325
     11 C          63.8566   83.2074   13.6672 C.2     1  UNL1        0.3799
     12 N          63.8272   81.7085   13.6179 N.2     1  UNL1       -0.0106
     13 C          63.0283   81.2999   12.4160 C.2     1  UNL1        0.3351
     14 N          62.5640   82.5462   11.7223 N.2     1  UNL1       -0.2103
     15 C          63.0760   83.7252   12.4957 C.3     1  UNL1        0.2404
     16 O          60.4145   89.7096    8.2714 O.2     1  UNL1       -0.2525
     17 C          59.7215   88.7509    7.3492 C.2     1  UNL1        0.3047
     18 N          58.9409   89.2686    6.1777 N.am    1  UNL1       -0.2846
     19 N          59.8093   87.2743    7.5985 N.am    1  UNL1       -0.2683
     20 H          58.4861   88.6393    5.5724 H       1  UNL1        0.1513
     21 H          59.3545   86.6450    6.9932 H       1  UNL1        0.1564
     22 C          58.8531   90.7452    5.9284 C.3     1  UNL1        0.1177
     23 C          59.6834   91.3742    4.8492 C.ar    1  UNL1       -0.0025
     24 C          61.1304   91.0059    4.7053 C.ar    1  UNL1       -0.0021
     25 C          61.9607   91.6348    3.6261 C.ar    1  UNL1        0.0064
     26 C          61.3442   92.6321    2.6906 C.ar    1  UNL1        0.0345
     27 BR         62.1746   93.2611    1.6113 Br      1  UNL1       -0.0490
     28 C          59.8972   93.0005    2.8343 C.ar    1  UNL1        0.0064
     29 C          59.0668   92.3715    3.9136 C.ar    1  UNL1       -0.0021
@<TRIPOS>BOND
     1    16    17    2
     2    17    18   am
     3    18    22    1
     4    22    23    1
     5    23    24   ar
     6    24    25   ar
     7    25    26   ar
     8    26    27    1
     9    26    28   ar
    10    28    29   ar
    11    17    19   am
    12    19     1    1
    13     1     2   ar
    14     2     3   ar
    15     3     4   ar
    16     4     7    1
    17     7     8    2
    18     8     9    1
    19     9    10    2
    20    10    11    1
    21    11    12    2
    22    12    13    1
    23    13    14    2
    24    14    15    1
    25     4     5   ar
    26     5     6   ar
    27    29    23   ar
    28     6     1   ar
    29    15     7    1
    30    15    11    1
    31    18    20    1
    32    19    21    1
@<TRIPOS>MOLECULE
*****
 29 32 0 0 0
SMALL
GASTEIGER

@<TRIPOS>ATOM
      1 C          60.8498   88.0092    9.7679 C.ar    1  UNL1        0.0516
      2 C          60.6138   86.6494    9.1801 C.ar    1  UNL1        0.0147
      3 C          61.3140   85.4530    9.7527 C.ar    1  UNL1        0.0010
      4 C          62.2505   85.6161   10.9132 C.ar    1  UNL1       -0.0014
      5 C          62.4865   86.9758   11.5010 C.ar    1  UNL1        0.0010
      6 C          61.7862   88.1723   10.9283 C.ar    1  UNL1        0.0147
      7 C          62.9507   84.4196   11.4858 C.2     1  UNL1        0.0158
      8 C          63.6994   83.4852   10.5823 C.2     1  UNL1        0.0487
      9 C          64.3996   82.2887   11.1549 C.2     1  UNL1        0.2355
     10 N          64.3513   82.0265   12.6310 N.2     1  UNL1       -0.0325
     11 C          63.6026   82.9609   13.5345 C.2     1  UNL1        0.3799
     12 N          63.3814   82.9602   15.0181 N.2     1  UNL1       -0.0106
     13 C          62.5444   84.1564   15.3624 C.2     1  UNL1        0.3351
     14 N          62.2483   84.8963   14.0916 N.2     1  UNL1       -0.2103
     15 C          62.9023   84.1574   12.9619 C.3     1  UNL1        0.2404
     16 O          60.1287   88.0743    6.8566 O.2     1  UNL1       -0.2525
     17 C          59.7890   89.2383    7.7396 C.2     1  UNL1        0.3047
     18 N          59.0887   90.4347    7.1670 N.am    1  UNL1       -0.2846
     19 N          60.1496   89.2057    9.1953 N.am    1  UNL1       -0.2683
     20 H          58.8658   91.1987    7.7465 H       1  UNL1        0.1513
     21 H          59.9266   89.9696    9.7749 H       1  UNL1        0.1564
     22 C          58.7281   90.4673    5.7113 C.3     1  UNL1        0.1177
     23 C          59.6030   91.2005    4.7382 C.ar    1  UNL1       -0.0025
     24 C          59.0204   92.2736    3.8669 C.ar    1  UNL1       -0.0021
     25 C          59.8951   93.0069    2.8938 C.ar    1  UNL1        0.0064
     26 C          61.3526   92.6671    2.7919 C.ar    1  UNL1        0.0345
     27 BR         62.2274   93.4003    1.8187 Br      1  UNL1       -0.0490
     28 C          61.9352   91.5940    3.6631 C.ar    1  UNL1        0.0064
     29 C          61.0604   90.8607    4.6362 C.ar    1  UNL1       -0.0021
@<TRIPOS>BOND
     1    16    17    2
     2    17    18   am
     3    18    22    1
     4    22    23    1
     5    23    24   ar
     6    24    25   ar
     7    25    26   ar
     8    26    27    1
     9    26    28   ar
    10    28    29   ar
    11    17    19   am
    12    19     1    1
    13     1     2   ar
    14     2     3   ar
    15     3     4   ar
    16     4     7    1
    17     7     8    2
    18     8     9    1
    19     9    10    2
    20    10    11    1
    21    11    12    2
    22    12    13    1
    23    13    14    2
    24    14    15    1
    25     4     5   ar
    26     5     6   ar
    27    29    23   ar
    28     6     1   ar
    29    15     7    1
    30    15    11    1
    31    18    20    1
    32    19    21    1
@<TRIPOS>MOLECULE
*****
 29 32 0 0 0
SMALL
GASTEIGER

@<TRIPOS>ATOM
      1 C          63.0736   86.4917   16.0464 C.ar    1  UNL1        0.0516
      2 C          64.1288   86.1417   15.0393 C.ar    1  UNL1        0.0147
      3 C          64.0401   84.8530   14.2771 C.ar    1  UNL1        0.0010
      4 C          62.8962   83.9139   14.5220 C.ar    1  UNL1       -0.0014
      5 C          61.8411   84.2638   15.5290 C.ar    1  UNL1        0.0010
      6 C          61.9298   85.5527   16.2912 C.ar    1  UNL1        0.0147
      7 C          62.8076   82.6251   13.7597 C.2     1  UNL1        0.0158
      8 C          62.2658   81.3953   14.4262 C.2     1  UNL1        0.0487
      9 C          62.1772   80.1065   13.6640 C.2     1  UNL1        0.2355
     10 N          62.6303   80.0474   12.2352 N.2     1  UNL1       -0.0325
     11 C          63.1720   81.2771   11.5688 C.2     1  UNL1        0.3799
     12 N          63.6909   81.5216   10.1828 N.2     1  UNL1       -0.0106
     13 C          64.1002   82.9616   10.0884 C.2     1  UNL1        0.3351
     14 N          63.8343   83.6071   11.4161 N.2     1  UNL1       -0.2103
     15 C          63.2607   82.5660   12.3310 C.3     1  UNL1        0.2404
     16 O          63.7260   89.0427   14.6088 O.2     1  UNL1       -0.2525
     17 C          63.4885   89.0561   16.0898 C.2     1  UNL1        0.3047
     18 N          63.5772   90.3448   16.8520 N.am    1  UNL1       -0.2846
     19 N          63.1623   87.7805   16.8086 N.am    1  UNL1       -0.2683
     20 H          63.4213   90.3536   17.8241 H       1  UNL1        0.1513
     21 H          63.0064   87.7892   17.7806 H       1  UNL1        0.1564
     22 C          63.9034   91.6204   16.1332 C.3     1  UNL1        0.1177
     23 C          65.3046   91.8804   15.6654 C.ar    1  UNL1       -0.0025
     24 C          65.7446   91.4028   14.3132 C.ar    1  UNL1       -0.0021
     25 C          67.1457   91.6627   13.8453 C.ar    1  UNL1        0.0064
     26 C          68.1071   92.4002   14.7295 C.ar    1  UNL1        0.0345
     27 BR         69.5084   92.6600   14.2615 Br      1  UNL1       -0.0490
     28 C          67.6673   92.8777   16.0817 C.ar    1  UNL1        0.0064
     29 C          66.2660   92.6178   16.5497 C.ar    1  UNL1       -0.0021
@<TRIPOS>BOND
     1    16    17    2
     2    17    18   am
     3    18    22    1
     4    22    23    1
     5    23    24   ar
     6    24    25   ar
     7    25    26   ar
     8    26    27    1
     9    26    28   ar
    10    28    29   ar
    11    17    19   am
    12    19     1    1
    13     1     2   ar
    14     2     3   ar
    15     3     4   ar
    16     4     7    1
    17     7     8    2
    18     8     9    1
    19     9    10    2
    20    10    11    1
    21    11    12    2
    22    12    13    1
    23    13    14    2
    24    14    15    1
    25     4     5   ar
    26     5     6   ar
    27    29    23   ar
    28     6     1   ar
    29    15     7    1
    30    15    11    1
    31    18    20    1
    32    19    21    1
@<TRIPOS>MOLECULE
*****
 29 32 0 0 0
SMALL
GASTEIGER

@<TRIPOS>ATOM
      1 C          62.4961   89.0354   10.7901 C.ar    1  UNL1        0.0516
      2 C          62.8697   88.2780   12.0299 C.ar    1  UNL1        0.0147
      3 C          63.5767   88.9783   13.1521 C.ar    1  UNL1        0.0010
      4 C          63.9104   90.4361   13.0347 C.ar    1  UNL1       -0.0014
      5 C          63.5368   91.1935   11.7950 C.ar    1  UNL1        0.0010
      6 C          62.8297   90.4931   10.6727 C.ar    1  UNL1        0.0147
      7 C          64.6175   91.1364   14.1570 C.2     1  UNL1        0.0158
      8 C          63.9525   91.2703   15.4948 C.2     1  UNL1        0.0487
      9 C          64.6596   91.9706   16.6171 C.2     1  UNL1        0.2355
     10 N          66.0318   92.5371   16.4015 N.2     1  UNL1       -0.0325
     11 C          66.6967   92.4032   15.0637 C.2     1  UNL1        0.3799
     12 N          68.0338   92.8571   14.5575 N.2     1  UNL1       -0.0106
     13 C          68.1530   92.4374   13.1224 C.2     1  UNL1        0.3351
     14 N          66.8896   91.7240   12.7416 N.2     1  UNL1       -0.2103
     15 C          65.9896   91.7029   13.9414 C.3     1  UNL1        0.2404
     16 O          60.2059   90.3765    9.3914 O.2     1  UNL1       -0.2525
     17 C          60.6438   89.0056    8.9685 C.2     1  UNL1        0.3047
     18 N          59.9367   88.3053    7.8463 N.am    1  UNL1       -0.2846
     19 N          61.7890   88.3351    9.6679 N.am    1  UNL1       -0.2683
     20 H          60.2242   87.4056    7.5687 H       1  UNL1        0.1513
     21 H          62.0764   87.4353    9.3904 H       1  UNL1        0.1564
     22 C          58.7916   88.9759    7.1468 C.3     1  UNL1        0.1177
     23 C          59.0577   90.0267    6.1102 C.ar    1  UNL1       -0.0025
     24 C          60.4584   90.2705    5.6317 C.ar    1  UNL1       -0.0021
     25 C          60.7246   91.3213    4.5950 C.ar    1  UNL1        0.0064
     26 C          59.5903   92.1285    4.0368 C.ar    1  UNL1        0.0345
     27 BR         59.8566   93.1794    3.0001 Br      1  UNL1       -0.0490
     28 C          58.1897   91.8848    4.5152 C.ar    1  UNL1        0.0064
     29 C          57.9234   90.8339    5.5519 C.ar    1  UNL1       -0.0021
@<TRIPOS>BOND
     1    16    17    2
     2    17    18   am
     3    18    22    1
     4    22    23    1
     5    23    24   ar
     6    24    25   ar
     7    25    26   ar
     8    26    27    1
     9    26    28   ar
    10    28    29   ar
    11    17    19   am
    12    19     1    1
    13     1     2   ar
    14     2     3   ar
    15     3     4   ar
    16     4     7    1
    17     7     8    2
    18     8     9    1
    19     9    10    2
    20    10    11    1
    21    11    12    2
    22    12    13    1
    23    13    14    2
    24    14    15    1
    25     4     5   ar
    26     5     6   ar
    27    29    23   ar
    28     6     1   ar
    29    15     7    1
    30    15    11    1
    31    18    20    1
    32    19    21    1
@<TRIPOS>MOLECULE
*****
 29 32 0 0 0
SMALL
GASTEIGER

@<TRIPOS>ATOM
      1 C          64.1432   87.2863   14.8904 C.ar    1  UNL1        0.0516
      2 C          63.8198   86.9983   13.4542 C.ar    1  UNL1        0.0147
      3 C          63.3980   85.6191   13.0425 C.ar    1  UNL1        0.0010
      4 C          63.2997   84.5276   14.0668 C.ar    1  UNL1       -0.0014
      5 C          63.6232   84.8156   15.5029 C.ar    1  UNL1        0.0010
      6 C          64.0449   86.1949   15.9147 C.ar    1  UNL1        0.0147
      7 C          62.8780   83.1483   13.6550 C.2     1  UNL1        0.0158
      8 C          62.0868   82.2927   14.5993 C.2     1  UNL1        0.0487
      9 C          61.6650   80.9134   14.1875 C.2     1  UNL1        0.2355
     10 N          62.0345   80.3897   12.8313 N.2     1  UNL1       -0.0325
     11 C          62.8257   81.2453   11.8869 C.2     1  UNL1        0.3799
     12 N          63.3326   81.0014   10.4964 N.2     1  UNL1       -0.0106
     13 C          64.0677   82.2299   10.0489 C.2     1  UNL1        0.3351
     14 N          64.0151   83.2332   11.1628 N.2     1  UNL1       -0.2103
     15 C          63.2474   82.6247   12.2988 C.3     1  UNL1        0.2404
     16 O          63.9990   89.5484   12.9252 O.2     1  UNL1       -0.2525
     17 C          64.4928   89.7967   14.3196 C.2     1  UNL1        0.3047
     18 N          64.9146   91.1760   14.7314 N.am    1  UNL1       -0.2846
     19 N          64.5650   88.6656   15.3022 N.am    1  UNL1       -0.2683
     20 H          65.2387   91.3389   15.6466 H       1  UNL1        0.1513
     21 H          64.8891   88.8285   16.2174 H       1  UNL1        0.1564
     22 C          64.8425   92.3071   13.7488 C.3     1  UNL1        0.1177
     23 C          65.7966   92.3580   12.5925 C.ar    1  UNL1       -0.0025
     24 C          65.3288   92.8510   11.2553 C.ar    1  UNL1       -0.0021
     25 C          66.2828   92.9020   10.0990 C.ar    1  UNL1        0.0064
     26 C          67.7047   92.4600   10.2798 C.ar    1  UNL1        0.0345
     27 BR         68.6588   92.5110    9.1235 Br      1  UNL1       -0.0490
     28 C          68.1726   91.9670   11.6170 C.ar    1  UNL1        0.0064
     29 C          67.2185   91.9160   12.7733 C.ar    1  UNL1       -0.0021
@<TRIPOS>BOND
     1    16    17    2
     2    17    18   am
     3    18    22    1
     4    22    23    1
     5    23    24   ar
     6    24    25   ar
     7    25    26   ar
     8    26    27    1
     9    26    28   ar
    10    28    29   ar
    11    17    19   am
    12    19     1    1
    13     1     2   ar
    14     2     3   ar
    15     3     4   ar
    16     4     7    1
    17     7     8    2
    18     8     9    1
    19     9    10    2
    20    10    11    1
    21    11    12    2
    22    12    13    1
    23    13    14    2
    24    14    15    1
    25     4     5   ar
    26     5     6   ar
    27    29    23   ar
    28     6     1   ar
    29    15     7    1
    30    15    11    1
    31    18    20    1
    32    19    21    1
@<TRIPOS>MOLECULE
*****
 29 32 0 0 0
SMALL
GASTEIGER

@<TRIPOS>ATOM
      1 C          64.2344   87.3915   14.4530 C.ar    1  UNL1        0.0516
      2 C          64.8219   86.1266   15.0052 C.ar    1  UNL1        0.0147
      3 C          64.5920   84.8227   14.3004 C.ar    1  UNL1        0.0010
      4 C          63.7746   84.7836   13.0432 C.ar    1  UNL1       -0.0014
      5 C          63.1871   86.0484   12.4910 C.ar    1  UNL1        0.0010
      6 C          63.4171   87.3524   13.1959 C.ar    1  UNL1        0.0147
      7 C          63.5446   83.4796   12.3384 C.2     1  UNL1        0.0158
      8 C          64.1035   83.2614   10.9636 C.2     1  UNL1        0.0487
      9 C          63.8736   81.9576   10.2588 C.2     1  UNL1        0.2355
     10 N          63.0848   80.8716   10.9287 N.2     1  UNL1       -0.0325
     11 C          62.5260   81.0898   12.3035 C.2     1  UNL1        0.3799
     12 N          61.7150   80.2104   13.2084 N.2     1  UNL1       -0.0106
     13 C          61.4437   80.9709   14.4726 C.2     1  UNL1        0.3351
     14 N          62.0870   82.3203   14.3489 N.2     1  UNL1       -0.2103
     15 C          62.7559   82.3938   13.0083 C.3     1  UNL1        0.2404
     16 O          64.6421   89.9037   12.8647 O.2     1  UNL1       -0.2525
     17 C          64.6682   89.9516   14.3637 C.2     1  UNL1        0.3047
     18 N          64.8981   91.2555   15.0685 N.am    1  UNL1       -0.2846
     19 N          64.4644   88.6954   15.1578 N.am    1  UNL1       -0.2683
     20 H          64.9152   91.2869   16.0523 H       1  UNL1        0.1513
     21 H          64.4815   88.7268   16.1417 H       1  UNL1        0.1564
     22 C          65.1019   92.5116   14.2743 C.3     1  UNL1        0.1177
     23 C          65.9549   92.4889   13.0407 C.ar    1  UNL1       -0.0025
     24 C          65.3907   92.9517   11.7301 C.ar    1  UNL1       -0.0021
     25 C          66.2435   92.9290   10.4965 C.ar    1  UNL1        0.0064
     26 C          67.6607   92.4435   10.5733 C.ar    1  UNL1        0.0345
     27 BR         68.5136   92.4208    9.3396 Br      1  UNL1       -0.0490
     28 C          68.2250   91.9807   11.8838 C.ar    1  UNL1        0.0064
     29 C          67.3721   92.0034   13.1175 C.ar    1  UNL1       -0.0021
@<TRIPOS>BOND
     1    16    17    2
     2    17    18   am
     3    18    22    1
     4    22    23    1
     5    23    24   ar
     6    24    25   ar
     7    25    26   ar
     8    26    27    1
     9    26    28   ar
    10    28    29   ar
    11    17    19   am
    12    19     1    1
    13     1     2   ar
    14     2     3   ar
    15     3     4   ar
    16     4     7    1
    17     7     8    2
    18     8     9    1
    19     9    10    2
    20    10    11    1
    21    11    12    2
    22    12    13    1
    23    13    14    2
    24    14    15    1
    25     4     5   ar
    26     5     6   ar
    27    29    23   ar
    28     6     1   ar
    29    15     7    1
    30    15    11    1
    31    18    20    1
    32    19    21    1
