@<TRIPOS>MOLECULE
*****
 25 27 0 0 0
SMALL
GASTEIGER

@<TRIPOS>ATOM
      1 O          62.9846   81.7518   14.5879 O.2     1  UNL1       -0.2262
      2 C          63.7236   82.9544   14.0805 C.2     1  UNL1        0.4052
      3 N          63.6025   84.2666   14.7970 N.am    1  UNL1       -0.2460
      4 C          64.3415   85.4693   14.2895 C.3     1  UNL1        0.0968
      5 C          64.2204   86.7815   15.0060 C.3     1  UNL1        0.0234
      6 C          63.3601   86.8911   16.2300 C.3     1  UNL1        0.0230
      7 C          62.6211   85.6884   16.7374 C.3     1  UNL1        0.0234
      8 C          62.7423   84.3762   16.0209 C.3     1  UNL1        0.0968
      9 O          64.5839   82.8448   12.8565 O.3     1  UNL1       -0.4295
     10 C          63.9539   82.6100   11.5156 C.3     1  UNL1        0.2367
     11 C          63.3591   83.7579   10.7550 C.ar    1  UNL1        0.0213
     12 C          63.7390   83.9854    9.3219 C.ar    1  UNL1       -0.0007
     13 C          63.1442   85.1333    8.5614 C.ar    1  UNL1       -0.0002
     14 C          62.1694   86.0537    9.2340 C.ar    1  UNL1       -0.0000
     15 C          61.7894   85.8263   10.6671 C.ar    1  UNL1       -0.0002
     16 C          62.3842   84.6784   11.4276 C.ar    1  UNL1       -0.0007
     17 C          63.2390   88.2033   16.9465 C.3     1  UNL1        0.0883
     18 N          62.5404   89.3558   16.2878 N.pl3   1  UNL1       -0.3169
     19 H          61.6570   89.6459   16.6114 H       1  UNL1        0.1482
     20 C          63.1878   90.0662   15.1363 C.ar    1  UNL1        0.1479
     21 C          64.2974   91.0441   15.3865 C.ar    1  UNL1        0.1329
     22 N          64.9448   91.7545   14.2348 N.ar    1  UNL1       -0.2378
     23 C          64.4827   91.4871   12.8331 C.ar    1  UNL1        0.1196
     24 C          63.3731   90.5092   12.5830 C.ar    1  UNL1        0.1209
     25 N          62.7257   89.7988   13.7345 N.ar    1  UNL1       -0.2262
@<TRIPOS>BOND
     1     1     2    2
     2     2     9    1
     3     9    10    1
     4    10    11    1
     5    11    12   ar
     6    12    13   ar
     7    13    14   ar
     8    14    15   ar
     9    15    16   ar
    10     2     3   am
    11     3     4    1
    12     4     5    1
    13     5     6    1
    14     6    17    1
    15    17    18    1
    16    18    20    1
    17    20    21   ar
    18    21    22   ar
    19    22    23   ar
    20    23    24   ar
    21    24    25   ar
    22     6     7    1
    23     7     8    1
    24    16    11   ar
    25     8     3    1
    26    25    20   ar
    27    18    19    1
@<TRIPOS>MOLECULE
*****
 25 27 0 0 0
SMALL
GASTEIGER

@<TRIPOS>ATOM
      1 O          60.8429   89.4712    9.1337 O.2     1  UNL1       -0.2262
      2 C          61.3781   89.1925   10.5070 C.2     1  UNL1        0.4052
      3 N          62.4910   90.0308   11.0626 N.am    1  UNL1       -0.2460
      4 C          63.0262   89.7521   12.4359 C.3     1  UNL1        0.0968
      5 C          64.1391   90.5903   12.9915 C.3     1  UNL1        0.0234
      6 C          64.7168   91.7074   12.1738 C.3     1  UNL1        0.0230
      7 C          64.1816   91.9861   10.8006 C.3     1  UNL1        0.0234
      8 C          63.0687   91.1477   10.2449 C.3     1  UNL1        0.0968
      9 O          60.8003   88.0755   11.3246 O.3     1  UNL1       -0.4295
     10 C          61.2741   86.6681   11.1127 C.3     1  UNL1        0.2367
     11 C          61.4344   86.1323    9.7208 C.ar    1  UNL1        0.0213
     12 C          62.7266   85.4922    9.3078 C.ar    1  UNL1       -0.0007
     13 C          62.8868   84.9564    7.9160 C.ar    1  UNL1       -0.0002
     14 C          61.7550   85.0608    6.9372 C.ar    1  UNL1       -0.0000
     15 C          60.4629   85.7009    7.3502 C.ar    1  UNL1       -0.0002
     16 C          60.3026   86.2367    8.7420 C.ar    1  UNL1       -0.0007
     17 C          65.8297   92.5456   12.7294 C.3     1  UNL1        0.0883
     18 N          65.8600   94.0220   12.4660 N.pl3   1  UNL1       -0.3169
     19 H          65.5442   94.6514   13.1540 H       1  UNL1        0.1482
     20 C          66.3716   94.5395   11.1544 C.ar    1  UNL1        0.1479
     21 C          65.7647   95.7683   10.5447 C.ar    1  UNL1        0.1329
     22 N          66.2764   96.2857    9.2330 N.ar    1  UNL1       -0.2378
     23 C          67.3949   95.5743    8.5310 C.ar    1  UNL1        0.1196
     24 C          68.0018   94.3455    9.1406 C.ar    1  UNL1        0.1209
     25 N          67.4902   93.8281   10.4523 N.ar    1  UNL1       -0.2262
@<TRIPOS>BOND
     1     1     2    2
     2     2     9    1
     3     9    10    1
     4    10    11    1
     5    11    12   ar
     6    12    13   ar
     7    13    14   ar
     8    14    15   ar
     9    15    16   ar
    10     2     3   am
    11     3     4    1
    12     4     5    1
    13     5     6    1
    14     6    17    1
    15    17    18    1
    16    18    20    1
    17    20    21   ar
    18    21    22   ar
    19    22    23   ar
    20    23    24   ar
    21    24    25   ar
    22     6     7    1
    23     7     8    1
    24    16    11   ar
    25     8     3    1
    26    25    20   ar
    27    18    19    1
@<TRIPOS>MOLECULE
*****
 25 27 0 0 0
SMALL
GASTEIGER

@<TRIPOS>ATOM
      1 O          63.6245   82.9960   15.6135 O.2     1  UNL1       -0.2262
      2 C          64.0526   84.1175   14.7140 C.2     1  UNL1        0.4052
      3 N          63.8864   85.5404   15.1585 N.am    1  UNL1       -0.2460
      4 C          64.3144   86.6619   14.2590 C.3     1  UNL1        0.0968
      5 C          64.1483   88.0849   14.7035 C.3     1  UNL1        0.0234
      6 C          63.5541   88.3864   16.0474 C.3     1  UNL1        0.0230
      7 C          63.1261   87.2649   16.9468 C.3     1  UNL1        0.0234
      8 C          63.2922   85.8419   16.5023 C.3     1  UNL1        0.0968
      9 O          64.6468   83.8160   13.3701 O.3     1  UNL1       -0.4295
     10 C          63.7855   83.2536   12.2784 C.3     1  UNL1        0.2367
     11 C          63.2387   84.1577   11.2136 C.ar    1  UNL1        0.0213
     12 C          62.2320   85.2114   11.5686 C.ar    1  UNL1       -0.0007
     13 C          61.6852   86.1154   10.5038 C.ar    1  UNL1       -0.0002
     14 C          62.1452   85.9657    9.0840 C.ar    1  UNL1       -0.0000
     15 C          63.1519   84.9120    8.7289 C.ar    1  UNL1       -0.0002
     16 C          63.6987   84.0080    9.7937 C.ar    1  UNL1       -0.0007
     17 C          63.3880   89.8093   16.4918 C.3     1  UNL1        0.0883
     18 N          63.5782   90.9284   15.5113 N.pl3   1  UNL1       -0.3169
     19 H          62.8046   91.2917   15.0228 H       1  UNL1        0.1482
     20 C          64.9473   91.4939   15.2750 C.ar    1  UNL1        0.1479
     21 C          65.6570   91.2247   13.9813 C.ar    1  UNL1        0.1329
     22 N          67.0261   91.7903   13.7450 N.ar    1  UNL1       -0.2378
     23 C          67.6855   92.6250   14.8026 C.ar    1  UNL1        0.1196
     24 C          66.9758   92.8942   16.0964 C.ar    1  UNL1        0.1209
     25 N          65.6067   92.3286   16.3326 N.ar    1  UNL1       -0.2262
@<TRIPOS>BOND
     1     1     2    2
     2     2     9    1
     3     9    10    1
     4    10    11    1
     5    11    12   ar
     6    12    13   ar
     7    13    14   ar
     8    14    15   ar
     9    15    16   ar
    10     2     3   am
    11     3     4    1
    12     4     5    1
    13     5     6    1
    14     6    17    1
    15    17    18    1
    16    18    20    1
    17    20    21   ar
    18    21    22   ar
    19    22    23   ar
    20    23    24   ar
    21    24    25   ar
    22     6     7    1
    23     7     8    1
    24    16    11   ar
    25     8     3    1
    26    25    20   ar
    27    18    19    1
@<TRIPOS>MOLECULE
*****
 25 27 0 0 0
SMALL
GASTEIGER

@<TRIPOS>ATOM
      1 O          61.0577   88.6528    9.2632 O.2     1  UNL1       -0.2262
      2 C          61.6862   88.4037   10.6022 C.2     1  UNL1        0.4052
      3 N          62.6257   89.4148   11.1895 N.am    1  UNL1       -0.2460
      4 C          63.2542   89.1657   12.5285 C.3     1  UNL1        0.0968
      5 C          64.1937   90.1768   13.1158 C.3     1  UNL1        0.0234
      6 C          64.5047   91.4371   12.3641 C.3     1  UNL1        0.0230
      7 C          63.8762   91.6862   11.0251 C.3     1  UNL1        0.0234
      8 C          62.9366   90.6750   10.4378 C.3     1  UNL1        0.0968
      9 O          61.3752   87.1434   11.3539 O.3     1  UNL1       -0.4295
     10 C          61.4741   85.8150   10.6642 C.3     1  UNL1        0.2367
     11 C          62.5319   84.8338   11.0746 C.ar    1  UNL1        0.0213
     12 C          63.2663   84.0432   10.0326 C.ar    1  UNL1       -0.0007
     13 C          64.3240   83.0620   10.4430 C.ar    1  UNL1       -0.0002
     14 C          64.6475   82.8715   11.8953 C.ar    1  UNL1       -0.0000
     15 C          63.9132   83.6621   12.9372 C.ar    1  UNL1       -0.0002
     16 C          62.8554   84.6433   12.5268 C.ar    1  UNL1       -0.0007
     17 C          65.4442   92.4482   12.9514 C.3     1  UNL1        0.0883
     18 N          66.8596   92.5302   12.4617 N.pl3   1  UNL1       -0.3169
     19 H          67.5890   92.1427   12.9974 H       1  UNL1        0.1482
     20 C          67.1636   93.2025   11.1558 C.ar    1  UNL1        0.1479
     21 C          67.7881   92.4216   10.0376 C.ar    1  UNL1        0.1329
     22 N          68.0921   93.0941    8.7317 N.ar    1  UNL1       -0.2378
     23 C          67.7717   94.5473    8.5439 C.ar    1  UNL1        0.1196
     24 C          67.1472   95.3282    9.6620 C.ar    1  UNL1        0.1209
     25 N          66.8432   94.6559   10.9680 N.ar    1  UNL1       -0.2262
@<TRIPOS>BOND
     1     1     2    2
     2     2     9    1
     3     9    10    1
     4    10    11    1
     5    11    12   ar
     6    12    13   ar
     7    13    14   ar
     8    14    15   ar
     9    15    16   ar
    10     2     3   am
    11     3     4    1
    12     4     5    1
    13     5     6    1
    14     6    17    1
    15    17    18    1
    16    18    20    1
    17    20    21   ar
    18    21    22   ar
    19    22    23   ar
    20    23    24   ar
    21    24    25   ar
    22     6     7    1
    23     7     8    1
    24    16    11   ar
    25     8     3    1
    26    25    20   ar
    27    18    19    1
@<TRIPOS>MOLECULE
*****
 25 27 0 0 0
SMALL
GASTEIGER

@<TRIPOS>ATOM
      1 O          62.7622   85.9872   18.0918 O.2     1  UNL1       -0.2262
      2 C          63.3366   86.0308   16.7068 C.2     1  UNL1        0.4052
      3 N          63.5121   87.3468   16.0088 N.am    1  UNL1       -0.2460
      4 C          64.0865   87.3904   14.6238 C.3     1  UNL1        0.0968
      5 C          64.2620   88.7064   13.9257 C.3     1  UNL1        0.0234
      6 C          63.8631   89.9789   14.6126 C.3     1  UNL1        0.0230
      7 C          63.2887   89.9352   15.9976 C.3     1  UNL1        0.0234
      8 C          63.1132   88.6192   16.6957 C.3     1  UNL1        0.0968
      9 O          63.7355   84.7583   16.0199 O.3     1  UNL1       -0.4295
     10 C          62.6863   83.7723   15.5993 C.3     1  UNL1        0.2367
     11 C          62.7941   83.0830   14.2714 C.ar    1  UNL1        0.0213
     12 C          63.5086   83.7521   13.1349 C.ar    1  UNL1       -0.0007
     13 C          63.6164   83.0628   11.8071 C.ar    1  UNL1       -0.0002
     14 C          63.0097   81.7043   11.6158 C.ar    1  UNL1       -0.0000
     15 C          62.2952   81.0353   12.7523 C.ar    1  UNL1       -0.0002
     16 C          62.1874   81.7246   14.0801 C.ar    1  UNL1       -0.0007
     17 C          64.0386   91.2948   13.9146 C.3     1  UNL1        0.0883
     18 N          65.3264   91.6046   13.2107 N.pl3   1  UNL1       -0.3169
     19 H          65.3941   91.4901   12.2352 H       1  UNL1        0.1482
     20 C          66.5112   92.0887   13.9930 C.ar    1  UNL1        0.1479
     21 C          67.8894   91.9797   13.4112 C.ar    1  UNL1        0.1329
     22 N          69.0742   92.4639   14.1936 N.ar    1  UNL1       -0.2378
     23 C          68.8806   93.0570   15.5577 C.ar    1  UNL1        0.1196
     24 C          67.5023   93.1659   16.1394 C.ar    1  UNL1        0.1209
     25 N          66.3176   92.6818   15.3571 N.ar    1  UNL1       -0.2262
@<TRIPOS>BOND
     1     1     2    2
     2     2     9    1
     3     9    10    1
     4    10    11    1
     5    11    12   ar
     6    12    13   ar
     7    13    14   ar
     8    14    15   ar
     9    15    16   ar
    10     2     3   am
    11     3     4    1
    12     4     5    1
    13     5     6    1
    14     6    17    1
    15    17    18    1
    16    18    20    1
    17    20    21   ar
    18    21    22   ar
    19    22    23   ar
    20    23    24   ar
    21    24    25   ar
    22     6     7    1
    23     7     8    1
    24    16    11   ar
    25     8     3    1
    26    25    20   ar
    27    18    19    1
@<TRIPOS>MOLECULE
*****
 25 27 0 0 0
SMALL
GASTEIGER

@<TRIPOS>ATOM
      1 O          62.3043   85.9543   18.0092 O.2     1  UNL1       -0.2262
      2 C          63.0472   86.0656   16.7109 C.2     1  UNL1        0.4052
      3 N          63.4193   87.4154   16.1729 N.am    1  UNL1       -0.2460
      4 C          64.1622   87.5267   14.8746 C.3     1  UNL1        0.0968
      5 C          64.5343   88.8765   14.3367 C.3     1  UNL1        0.0234
      6 C          64.1635   90.1152   15.0971 C.3     1  UNL1        0.0230
      7 C          63.4206   90.0040   16.3955 C.3     1  UNL1        0.0234
      8 C          63.0485   88.6540   16.9334 C.3     1  UNL1        0.0968
      9 O          63.4180   84.8269   15.9504 O.3     1  UNL1       -0.4295
     10 C          62.3447   83.9327   15.4041 C.3     1  UNL1        0.2367
     11 C          62.5615   83.2044   14.1108 C.ar    1  UNL1        0.0213
     12 C          62.4251   81.7116   14.0587 C.ar    1  UNL1       -0.0007
     13 C          62.6419   80.9834   12.7654 C.ar    1  UNL1       -0.0002
     14 C          62.9951   81.7480   11.5242 C.ar    1  UNL1       -0.0000
     15 C          63.1315   83.2409   11.5763 C.ar    1  UNL1       -0.0002
     16 C          62.9147   83.9691   12.8696 C.ar    1  UNL1       -0.0007
     17 C          64.5356   91.4651   14.5592 C.3     1  UNL1        0.0883
     18 N          65.9746   91.7973   14.2970 N.pl3   1  UNL1       -0.3169
     19 H          66.6333   91.7424   15.0266 H       1  UNL1        0.1482
     20 C          66.4100   92.2132   12.9232 C.ar    1  UNL1        0.1479
     21 C          67.7880   91.8731   12.4380 C.ar    1  UNL1        0.1329
     22 N          68.2234   92.2890   11.0641 N.ar    1  UNL1       -0.2378
     23 C          67.2808   93.0451   10.1755 C.ar    1  UNL1        0.1196
     24 C          65.9028   93.3853   10.6606 C.ar    1  UNL1        0.1209
     25 N          65.4674   92.9694   12.0344 N.ar    1  UNL1       -0.2262
@<TRIPOS>BOND
     1     1     2    2
     2     2     9    1
     3     9    10    1
     4    10    11    1
     5    11    12   ar
     6    12    13   ar
     7    13    14   ar
     8    14    15   ar
     9    15    16   ar
    10     2     3   am
    11     3     4    1
    12     4     5    1
    13     5     6    1
    14     6    17    1
    15    17    18    1
    16    18    20    1
    17    20    21   ar
    18    21    22   ar
    19    22    23   ar
    20    23    24   ar
    21    24    25   ar
    22     6     7    1
    23     7     8    1
    24    16    11   ar
    25     8     3    1
    26    25    20   ar
    27    18    19    1
@<TRIPOS>MOLECULE
*****
 25 27 0 0 0
SMALL
GASTEIGER

@<TRIPOS>ATOM
      1 O          63.3684   91.9616   16.3666 O.2     1  UNL1       -0.2262
      2 C          63.8380   91.0507   15.2713 C.2     1  UNL1        0.4052
      3 N          63.7842   89.5634   15.4579 N.am    1  UNL1       -0.2460
      4 C          64.2538   88.6526   14.3625 C.3     1  UNL1        0.0968
      5 C          64.2001   87.1652   14.5492 C.3     1  UNL1        0.0234
      6 C          63.6767   86.5887   15.8313 C.3     1  UNL1        0.0230
      7 C          63.2072   87.4995   16.9267 C.3     1  UNL1        0.0234
      8 C          63.2609   88.9869   16.7400 C.3     1  UNL1        0.0968
      9 O          64.3613   91.6273   13.9891 O.3     1  UNL1       -0.4295
     10 C          65.7938   92.0615   13.8916 C.3     1  UNL1        0.2367
     11 C          66.4023   92.3437   12.5499 C.ar    1  UNL1        0.0213
     12 C          67.7473   91.7781   12.2024 C.ar    1  UNL1       -0.0007
     13 C          68.3558   92.0604   10.8607 C.ar    1  UNL1       -0.0002
     14 C          67.6191   92.9083    9.8665 C.ar    1  UNL1       -0.0000
     15 C          66.2740   93.4739   10.2140 C.ar    1  UNL1       -0.0002
     16 C          65.6656   93.1916   11.5557 C.ar    1  UNL1       -0.0007
     17 C          63.6230   85.1013   16.0180 C.3     1  UNL1        0.0883
     18 N          64.5427   84.2132   15.2336 N.pl3   1  UNL1       -0.3169
     19 H          65.5101   84.2221   15.4165 H       1  UNL1        0.1482
     20 C          63.9887   83.3117   14.1705 C.ar    1  UNL1        0.1479
     21 C          63.7624   83.8378   12.7841 C.ar    1  UNL1        0.1329
     22 N          63.2083   82.9362   11.7209 N.ar    1  UNL1       -0.2378
     23 C          62.8807   81.5086   12.0442 C.ar    1  UNL1        0.1196
     24 C          63.1071   80.9825   13.4305 C.ar    1  UNL1        0.1209
     25 N          63.6611   81.8840   14.4936 N.ar    1  UNL1       -0.2262
@<TRIPOS>BOND
     1     1     2    2
     2     2     9    1
     3     9    10    1
     4    10    11    1
     5    11    12   ar
     6    12    13   ar
     7    13    14   ar
     8    14    15   ar
     9    15    16   ar
    10     2     3   am
    11     3     4    1
    12     4     5    1
    13     5     6    1
    14     6    17    1
    15    17    18    1
    16    18    20    1
    17    20    21   ar
    18    21    22   ar
    19    22    23   ar
    20    23    24   ar
    21    24    25   ar
    22     6     7    1
    23     7     8    1
    24    16    11   ar
    25     8     3    1
    26    25    20   ar
    27    18    19    1
@<TRIPOS>MOLECULE
*****
 25 27 0 0 0
SMALL
GASTEIGER

@<TRIPOS>ATOM
      1 O          64.1894   82.4015   15.4323 O.2     1  UNL1       -0.2262
      2 C          63.4805   83.5864   14.8464 C.2     1  UNL1        0.4052
      3 N          63.4318   83.7710   13.3586 N.am    1  UNL1       -0.2460
      4 C          62.7229   84.9559   12.7726 C.3     1  UNL1        0.0968
      5 C          62.6743   85.1405   11.2848 C.3     1  UNL1        0.0234
      6 C          63.3346   84.1401   10.3830 C.3     1  UNL1        0.0230
      7 C          64.0435   82.9552   10.9689 C.3     1  UNL1        0.0234
      8 C          64.0921   82.7706   12.4568 C.3     1  UNL1        0.0968
      9 O          62.8202   84.5868   15.7482 O.3     1  UNL1       -0.4295
     10 C          63.6529   85.5782   16.5057 C.3     1  UNL1        0.2367
     11 C          63.6778   87.0166   16.0809 C.ar    1  UNL1        0.0213
     12 C          63.0295   88.0630   16.9379 C.ar    1  UNL1       -0.0007
     13 C          63.0544   89.5014   16.5131 C.ar    1  UNL1       -0.0002
     14 C          63.7277   89.8933   15.2313 C.ar    1  UNL1       -0.0000
     15 C          64.3761   88.8468   14.3742 C.ar    1  UNL1       -0.0002
     16 C          64.3511   87.4085   14.7991 C.ar    1  UNL1       -0.0007
     17 C          63.2860   84.3247    8.8952 C.3     1  UNL1        0.0883
     18 N          63.0948   85.6948    8.3152 N.pl3   1  UNL1       -0.3169
     19 H          63.8673   86.1912    7.9601 H       1  UNL1        0.1482
     20 C          61.7267   86.3085    8.2764 C.ar    1  UNL1        0.1479
     21 C          60.6472   85.6826    7.4439 C.ar    1  UNL1        0.1329
     22 N          59.2791   86.2964    7.4051 N.ar    1  UNL1       -0.2378
     23 C          58.9904   87.5361    8.1986 C.ar    1  UNL1        0.1196
     24 C          60.0699   88.1621    9.0310 C.ar    1  UNL1        0.1209
     25 N          61.4380   87.5483    9.0699 N.ar    1  UNL1       -0.2262
@<TRIPOS>BOND
     1     1     2    2
     2     2     9    1
     3     9    10    1
     4    10    11    1
     5    11    12   ar
     6    12    13   ar
     7    13    14   ar
     8    14    15   ar
     9    15    16   ar
    10     2     3   am
    11     3     4    1
    12     4     5    1
    13     5     6    1
    14     6    17    1
    15    17    18    1
    16    18    20    1
    17    20    21   ar
    18    21    22   ar
    19    22    23   ar
    20    23    24   ar
    21    24    25   ar
    22     6     7    1
    23     7     8    1
    24    16    11   ar
    25     8     3    1
    26    25    20   ar
    27    18    19    1
@<TRIPOS>MOLECULE
*****
 25 27 0 0 0
SMALL
GASTEIGER

@<TRIPOS>ATOM
      1 O          62.6385   86.1623   18.2083 O.2     1  UNL1       -0.2262
      2 C          63.1856   86.0443   16.8167 C.2     1  UNL1        0.4052
      3 N          63.4264   87.2782   15.9984 N.am    1  UNL1       -0.2460
      4 C          63.9735   87.1602   14.6067 C.3     1  UNL1        0.0968
      5 C          64.2142   88.3940   13.7884 C.3     1  UNL1        0.0234
      6 C          63.9078   89.7459   14.3617 C.3     1  UNL1        0.0230
      7 C          63.3606   89.8638   15.7533 C.3     1  UNL1        0.0234
      8 C          63.1199   88.6299   16.5717 C.3     1  UNL1        0.0968
      9 O          63.4921   84.6925   16.2434 O.3     1  UNL1       -0.4295
     10 C          62.3878   83.8501   15.6770 C.3     1  UNL1        0.2367
     11 C          62.5471   83.2122   14.3287 C.ar    1  UNL1        0.0213
     12 C          62.8712   84.0574   13.1327 C.ar    1  UNL1       -0.0007
     13 C          63.0306   83.4194   11.7845 C.ar    1  UNL1       -0.0002
     14 C          62.8658   81.9363   11.6324 C.ar    1  UNL1       -0.0000
     15 C          62.5417   81.0911   12.8285 C.ar    1  UNL1       -0.0002
     16 C          62.3823   81.7290   14.1766 C.ar    1  UNL1       -0.0007
     17 C          64.1485   90.9797   13.5434 C.3     1  UNL1        0.0883
     18 N          63.1937   91.3511   12.4478 N.pl3   1  UNL1       -0.3169
     19 H          63.1155   92.2894   12.1601 H       1  UNL1        0.1482
     20 C          62.3580   90.2931   11.7906 C.ar    1  UNL1        0.1479
     21 C          61.0086   89.9492   12.3482 C.ar    1  UNL1        0.1329
     22 N          60.1729   88.8911   11.6910 N.ar    1  UNL1       -0.2378
     23 C          60.6865   88.1768   10.4760 C.ar    1  UNL1        0.1196
     24 C          62.0358   88.5207    9.9184 C.ar    1  UNL1        0.1209
     25 N          62.8716   89.5788   10.5756 N.ar    1  UNL1       -0.2262
@<TRIPOS>BOND
     1     1     2    2
     2     2     9    1
     3     9    10    1
     4    10    11    1
     5    11    12   ar
     6    12    13   ar
     7    13    14   ar
     8    14    15   ar
     9    15    16   ar
    10     2     3   am
    11     3     4    1
    12     4     5    1
    13     5     6    1
    14     6    17    1
    15    17    18    1
    16    18    20    1
    17    20    21   ar
    18    21    22   ar
    19    22    23   ar
    20    23    24   ar
    21    24    25   ar
    22     6     7    1
    23     7     8    1
    24    16    11   ar
    25     8     3    1
    26    25    20   ar
    27    18    19    1
