@<TRIPOS>MOLECULE
*****
 48 52 0 0 0
SMALL
GASTEIGER

@<TRIPOS>ATOM
      1 N          59.5299   88.4311    7.9132 N.am    1  UNL1       -0.2724
      2 C          60.3059   88.8487    9.1271 C.2     1  UNL1        0.2491
      3 O          60.1691   90.2436    9.6615 O.2     1  UNL1       -0.2727
      4 C          59.6667   87.0362    7.3788 C.3     1  UNL1        0.1111
      5 C          60.4851   86.0243    8.1246 C.3     1  UNL1        0.0939
      6 N          61.6024   85.3041    7.4297 N.3     1  UNL1       -0.2712
      7 C          62.4373   84.1688    5.2470 C.3     1  UNL1        0.0188
      8 C          61.3228   84.4996    6.1949 C.3     1  UNL1        0.0722
      9 C          62.9994   85.3884    7.9696 C.3     1  UNL1        0.0722
     10 C          63.5387   84.2844    8.8301 C.3     1  UNL1        0.0188
     11 C          58.6170   89.4084    7.2338 C.3     1  UNL1        0.1202
     12 C          59.1325   90.2619    6.1131 C.ar    1  UNL1       -0.0023
     13 C          60.5851   90.2159    5.7423 C.ar    1  UNL1       -0.0026
     14 C          61.1005   91.0694    4.6217 C.ar    1  UNL1       -0.0003
     15 C          60.1632   91.9689    3.8718 C.ar    1  UNL1       -0.0000
     16 C          58.7105   92.0150    4.2427 C.ar    1  UNL1       -0.0003
     17 C          58.1951   91.1615    5.3633 C.ar    1  UNL1       -0.0026
     18 C          60.6786   92.8225    2.7512 C.ar    1  UNL1        0.0001
     19 C          59.7206   93.6045    1.9023 C.ar    1  UNL1        0.0009
     20 C          60.2360   94.4580    0.7816 C.ar    1  UNL1        0.0114
     21 C          61.7095   94.5295    0.5098 C.ar    1  UNL1        0.0577
     22 CL         62.2249   95.3830   -0.6108 Cl      1  UNL1       -0.0822
     23 C          62.6675   93.7474    1.3588 C.ar    1  UNL1        0.0114
     24 C          62.1520   92.8940    2.4794 C.ar    1  UNL1        0.0009
     25 C          61.2188   87.8714    9.8065 C.3     1  UNL1        0.1934
     26 N          62.0995   88.3257   10.9325 N.ar    1  UNL1       -0.2979
     27 C          62.4450   89.7784   11.0752 C.ar    1  UNL1        0.0786
     28 C          63.3257   90.2328   12.2013 C.ar    1  UNL1        0.0574
     29 C          63.8608   89.2344   13.1846 C.ar    1  UNL1        0.2786
     30 O          64.7415   89.6887   14.3107 O.2     1  UNL1       -0.2654
     31 N          63.5153   87.7817   13.0419 N.ar    1  UNL1       -0.1847
     32 C          62.6346   87.3274   11.9159 C.ar    1  UNL1        0.1750
     33 C          63.6713   91.6854   12.3440 C.3     1  UNL1        0.0622
     34 C          65.0288   92.1769   11.9369 C.ar    1  UNL1        0.0220
     35 C          66.1697   92.4823   12.8615 C.ar    1  UNL1        0.1177
     36 N          67.3297   92.9435   12.0298 N.ar    1  UNL1       -0.1679
     37 N          66.9057   92.9231   10.5911 N.ar    1  UNL1       -0.2477
     38 C          67.7546   93.3088    9.4162 C.3     1  UNL1        0.1537
     39 C          65.4836   92.4494   10.5337 C.ar    1  UNL1        0.0927
     40 S          62.2891   85.8748   11.7731 S.3     1  UNL1       -0.0724
     41 C          63.3218   84.8262   12.0630 C.3     1  UNL1        0.0913
     42 C          62.8970   83.4564   12.5024 C.ar    1  UNL1       -0.0108
     43 C          62.2607   83.2639   13.8471 C.ar    1  UNL1       -0.0011
     44 C          61.8359   81.8940   14.2866 C.ar    1  UNL1        0.0293
     45 C          62.0473   80.7168   13.3814 C.ar    1  UNL1        0.1401
     46 F          61.6225   79.3470   13.8209 F       1  UNL1       -0.2042
     47 C          62.6836   80.9093   12.0367 C.ar    1  UNL1        0.0293
     48 C          63.1084   82.2791   11.5973 C.ar    1  UNL1       -0.0011
@<TRIPOS>BOND
     1     7     8    1
     2     8     6    1
     3     6     9    1
     4     9    10    1
     5     6     5    1
     6     5     4    1
     7     4     1    1
     8     1    11    1
     9    11    12    1
    10    12    13   ar
    11    13    14   ar
    12    14    15   ar
    13    15    18    1
    14    18    19   ar
    15    19    20   ar
    16    20    21   ar
    17    21    22    1
    18    21    23   ar
    19    23    24   ar
    20    15    16   ar
    21    16    17   ar
    22     1     2   am
    23     2     3    2
    24     2    25    1
    25    25    26    1
    26    26    27   ar
    27    27    28   ar
    28    28    33    1
    29    33    34    1
    30    34    35   ar
    31    35    36   ar
    32    36    37   ar
    33    37    38    1
    34    37    39   ar
    35    28    29   ar
    36    29    30    2
    37    29    31   ar
    38    31    32   ar
    39    32    40    1
    40    40    41    1
    41    41    42    1
    42    42    43   ar
    43    43    44   ar
    44    44    45   ar
    45    45    46    1
    46    45    47   ar
    47    47    48   ar
    48    17    12   ar
    49    32    26   ar
    50    48    42   ar
    51    24    18   ar
    52    39    34   ar
@<TRIPOS>MOLECULE
*****
 48 52 0 0 0
SMALL
GASTEIGER

@<TRIPOS>ATOM
      1 N          61.8546   87.2287   11.8140 N.am    1  UNL1       -0.2724
      2 C          62.2765   88.4426   12.5877 C.2     1  UNL1        0.2491
      3 O          61.3755   89.6398   12.6547 O.2     1  UNL1       -0.2727
      4 C          62.7557   86.0314   11.7470 C.3     1  UNL1        0.1111
      5 C          62.3883   84.8637   10.8802 C.3     1  UNL1        0.0939
      6 N          63.1926   84.5596    9.6511 N.3     1  UNL1       -0.2712
      7 C          63.9569   82.2822   10.6406 C.3     1  UNL1        0.0188
      8 C          64.1235   83.3835    9.6360 C.3     1  UNL1        0.0722
      9 C          63.0661   85.4316    8.4372 C.3     1  UNL1        0.0722
     10 C          62.3712   84.9155    7.2121 C.3     1  UNL1        0.0188
     11 C          60.5316   87.2122   11.1074 C.3     1  UNL1        0.1202
     12 C          60.3387   88.0191    9.8577 C.ar    1  UNL1       -0.0023
     13 C          60.8563   89.4250    9.7853 C.ar    1  UNL1       -0.0026
     14 C          60.6633   90.2319    8.5356 C.ar    1  UNL1       -0.0003
     15 C          59.9527   89.6328    7.3583 C.ar    1  UNL1       -0.0000
     16 C          59.4351   88.2268    7.4306 C.ar    1  UNL1       -0.0003
     17 C          59.6281   87.4200    8.6803 C.ar    1  UNL1       -0.0026
     18 C          59.7598   90.4397    6.1086 C.ar    1  UNL1        0.0001
     19 C          58.3830   90.8738    5.7012 C.ar    1  UNL1        0.0009
     20 C          58.1901   91.6807    4.4515 C.ar    1  UNL1        0.0114
     21 C          59.3740   92.0535    3.6092 C.ar    1  UNL1        0.0577
     22 CL         59.1811   92.8604    2.3595 Cl      1  UNL1       -0.0822
     23 C          60.7508   91.6193    4.0166 C.ar    1  UNL1        0.0114
     24 C          60.9437   90.8125    5.2663 C.ar    1  UNL1        0.0009
     25 C          63.5996   88.4591   13.2944 C.3     1  UNL1        0.1934
     26 N          63.9201   89.5608   14.2605 N.ar    1  UNL1       -0.2979
     27 C          64.7704   90.7171   13.8242 C.ar    1  UNL1        0.0786
     28 C          65.0909   91.8189   14.7903 C.ar    1  UNL1        0.0574
     29 C          64.5612   91.7644   16.1926 C.ar    1  UNL1        0.2786
     30 O          64.8818   92.8662   17.1587 O.2     1  UNL1       -0.2654
     31 N          63.7110   90.6082   16.6288 N.ar    1  UNL1       -0.1847
     32 C          63.3905   89.5064   15.6628 C.ar    1  UNL1        0.1750
     33 C          65.9411   92.9751   14.3541 C.3     1  UNL1        0.0622
     34 C          66.5231   92.9986   12.9717 C.ar    1  UNL1        0.0220
     35 C          67.6006   92.0931   12.4531 C.ar    1  UNL1        0.1177
     36 N          67.8732   92.4667   11.0262 N.ar    1  UNL1       -0.1679
     37 N          66.9640   93.6032   10.6628 N.ar    1  UNL1       -0.2477
     38 C          66.9005   94.2902    9.3310 C.3     1  UNL1        0.1537
     39 C          66.1297   93.9319   11.8652 C.ar    1  UNL1        0.0927
     40 S          62.5403   88.3502   16.0990 S.3     1  UNL1       -0.0724
     41 C          63.1685   87.1752   16.7880 C.3     1  UNL1        0.0913
     42 C          63.4187   85.9062   16.0285 C.ar    1  UNL1       -0.0108
     43 C          62.4411   84.7723   16.1198 C.ar    1  UNL1       -0.0011
     44 C          62.6912   83.5032   15.3603 C.ar    1  UNL1        0.0293
     45 C          63.9192   83.3680   14.5095 C.ar    1  UNL1        0.1401
     46 F          64.1694   82.0990   13.7499 F       1  UNL1       -0.2042
     47 C          64.8969   84.5020   14.4181 C.ar    1  UNL1        0.0293
     48 C          64.6467   85.7710   15.1776 C.ar    1  UNL1       -0.0011
@<TRIPOS>BOND
     1     7     8    1
     2     8     6    1
     3     6     9    1
     4     9    10    1
     5     6     5    1
     6     5     4    1
     7     4     1    1
     8     1    11    1
     9    11    12    1
    10    12    13   ar
    11    13    14   ar
    12    14    15   ar
    13    15    18    1
    14    18    19   ar
    15    19    20   ar
    16    20    21   ar
    17    21    22    1
    18    21    23   ar
    19    23    24   ar
    20    15    16   ar
    21    16    17   ar
    22     1     2   am
    23     2     3    2
    24     2    25    1
    25    25    26    1
    26    26    27   ar
    27    27    28   ar
    28    28    33    1
    29    33    34    1
    30    34    35   ar
    31    35    36   ar
    32    36    37   ar
    33    37    38    1
    34    37    39   ar
    35    28    29   ar
    36    29    30    2
    37    29    31   ar
    38    31    32   ar
    39    32    40    1
    40    40    41    1
    41    41    42    1
    42    42    43   ar
    43    43    44   ar
    44    44    45   ar
    45    45    46    1
    46    45    47   ar
    47    47    48   ar
    48    17    12   ar
    49    32    26   ar
    50    48    42   ar
    51    24    18   ar
    52    39    34   ar
@<TRIPOS>MOLECULE
*****
 48 52 0 0 0
SMALL
GASTEIGER

@<TRIPOS>ATOM
      1 N          61.8524   87.2487   11.8076 N.am    1  UNL1       -0.2724
      2 C          62.2708   88.4544   12.5958 C.2     1  UNL1        0.2491
      3 O          61.3626   89.6449   12.6842 O.2     1  UNL1       -0.2727
      4 C          62.7606   86.0582   11.7192 C.3     1  UNL1        0.1111
      5 C          62.3875   84.8929   10.8515 C.3     1  UNL1        0.0939
      6 N          63.2132   84.5627    9.6436 N.3     1  UNL1       -0.2712
      7 C          62.2910   84.9132    7.2401 C.3     1  UNL1        0.0188
      8 C          63.0997   85.4015    8.4052 C.3     1  UNL1        0.0722
      9 C          64.1525   83.3936    9.6739 C.3     1  UNL1        0.0722
     10 C          63.9125   82.2633   10.6305 C.3     1  UNL1        0.0188
     11 C          60.5258   87.2336   11.1077 C.3     1  UNL1        0.1202
     12 C          60.3286   88.0372    9.8565 C.ar    1  UNL1       -0.0023
     13 C          59.6235   87.4314    8.6793 C.ar    1  UNL1       -0.0026
     14 C          59.4264   88.2350    7.4282 C.ar    1  UNL1       -0.0003
     15 C          59.9344   89.6444    7.3543 C.ar    1  UNL1       -0.0000
     16 C          60.6395   90.2502    8.5314 C.ar    1  UNL1       -0.0003
     17 C          60.8367   89.4466    9.7825 C.ar    1  UNL1       -0.0026
     18 C          59.7373   90.4481    6.1031 C.ar    1  UNL1        0.0001
     19 C          60.9179   90.8161    5.2543 C.ar    1  UNL1        0.0009
     20 C          60.7208   91.6197    4.0031 C.ar    1  UNL1        0.0114
     21 C          59.3429   92.0553    3.6008 C.ar    1  UNL1        0.0577
     22 CL         59.1457   92.8588    2.3497 Cl      1  UNL1       -0.0822
     23 C          58.1622   91.6872    4.4497 C.ar    1  UNL1        0.0114
     24 C          58.3594   90.8836    5.7008 C.ar    1  UNL1        0.0009
     25 C          63.5974   88.4695   13.2957 C.3     1  UNL1        0.1934
     26 N          63.9244   89.5714   14.2595 N.ar    1  UNL1       -0.2979
     27 C          64.7953   90.7132   13.8258 C.ar    1  UNL1        0.0786
     28 C          65.1223   91.8151   14.7896 C.ar    1  UNL1        0.0574
     29 C          64.5784   91.7752   16.1870 C.ar    1  UNL1        0.2786
     30 O          64.9054   92.8772   17.1508 O.2     1  UNL1       -0.2654
     31 N          63.7076   90.6335   16.6206 N.ar    1  UNL1       -0.1847
     32 C          63.3806   89.5316   15.6568 C.ar    1  UNL1        0.1750
     33 C          65.9931   92.9569   14.3560 C.3     1  UNL1        0.0622
     34 C          66.5612   92.9818   12.9679 C.ar    1  UNL1        0.0220
     35 C          67.6578   92.1002   12.4481 C.ar    1  UNL1        0.1177
     36 N          67.9068   92.4662   11.0149 N.ar    1  UNL1       -0.1679
     37 N          66.9640   93.5741   10.6489 N.ar    1  UNL1       -0.2477
     38 C          66.8695   94.2454    9.3109 C.3     1  UNL1        0.1537
     39 C          66.1324   93.8927   11.8560 C.ar    1  UNL1        0.0927
     40 S          62.5098   88.3898   16.0904 S.3     1  UNL1       -0.0724
     41 C          63.1129   87.2143   16.8008 C.3     1  UNL1        0.0913
     42 C          63.3751   85.9403   16.0538 C.ar    1  UNL1       -0.0108
     43 C          64.6142   85.8012   15.2200 C.ar    1  UNL1       -0.0011
     44 C          64.8764   84.5272   14.4729 C.ar    1  UNL1        0.0293
     45 C          63.8995   83.3922   14.5596 C.ar    1  UNL1        0.1401
     46 F          64.1617   82.1182   13.8126 F       1  UNL1       -0.2042
     47 C          62.6604   83.5313   15.3935 C.ar    1  UNL1        0.0293
     48 C          62.3982   84.8053   16.1405 C.ar    1  UNL1       -0.0011
@<TRIPOS>BOND
     1     7     8    1
     2     8     6    1
     3     6     9    1
     4     9    10    1
     5     6     5    1
     6     5     4    1
     7     4     1    1
     8     1    11    1
     9    11    12    1
    10    12    13   ar
    11    13    14   ar
    12    14    15   ar
    13    15    18    1
    14    18    19   ar
    15    19    20   ar
    16    20    21   ar
    17    21    22    1
    18    21    23   ar
    19    23    24   ar
    20    15    16   ar
    21    16    17   ar
    22     1     2   am
    23     2     3    2
    24     2    25    1
    25    25    26    1
    26    26    27   ar
    27    27    28   ar
    28    28    33    1
    29    33    34    1
    30    34    35   ar
    31    35    36   ar
    32    36    37   ar
    33    37    38    1
    34    37    39   ar
    35    28    29   ar
    36    29    30    2
    37    29    31   ar
    38    31    32   ar
    39    32    40    1
    40    40    41    1
    41    41    42    1
    42    42    43   ar
    43    43    44   ar
    44    44    45   ar
    45    45    46    1
    46    45    47   ar
    47    47    48   ar
    48    17    12   ar
    49    32    26   ar
    50    48    42   ar
    51    24    18   ar
    52    39    34   ar
@<TRIPOS>MOLECULE
*****
 48 52 0 0 0
SMALL
GASTEIGER

@<TRIPOS>ATOM
      1 N          63.5652   87.7256   13.5618 N.am    1  UNL1       -0.2724
      2 C          62.6315   87.3483   12.4502 C.2     1  UNL1        0.2491
      3 O          61.7075   88.3752   11.8657 O.2     1  UNL1       -0.2727
      4 C          64.4893   86.6987   14.1463 C.3     1  UNL1        0.1111
      5 C          64.3516   86.2982   15.5852 C.3     1  UNL1        0.0939
      6 N          62.9897   86.0957   16.1803 N.3     1  UNL1       -0.2712
      7 C          62.8247   83.6016   15.4712 C.3     1  UNL1        0.0188
      8 C          62.1618   84.9128   15.7734 C.3     1  UNL1        0.0722
      9 C          62.4556   87.0759   17.1822 C.3     1  UNL1        0.0722
     10 C          62.7859   86.9168   18.6368 C.3     1  UNL1        0.0188
     11 C          63.5750   89.1299   14.0890 C.3     1  UNL1        0.1202
     12 C          64.1995   90.2296   13.2822 C.ar    1  UNL1       -0.0023
     13 C          63.6173   90.6079   11.9527 C.ar    1  UNL1       -0.0026
     14 C          64.2418   91.7075   11.1460 C.ar    1  UNL1       -0.0003
     15 C          65.4486   92.4288   11.6689 C.ar    1  UNL1       -0.0000
     16 C          66.0308   92.0505   12.9985 C.ar    1  UNL1       -0.0003
     17 C          65.4063   90.9508   13.8051 C.ar    1  UNL1       -0.0026
     18 C          66.0731   93.5285   10.8622 C.ar    1  UNL1        0.0001
     19 C          65.6600   94.9525   11.0889 C.ar    1  UNL1        0.0009
     20 C          66.2845   96.0522   10.2822 C.ar    1  UNL1        0.0114
     21 C          67.3222   95.7277    9.2487 C.ar    1  UNL1        0.0577
     22 CL         67.9467   96.8273    8.4420 Cl      1  UNL1       -0.0822
     23 C          67.7353   94.3036    9.0220 C.ar    1  UNL1        0.0114
     24 C          67.1108   93.2041    9.8287 C.ar    1  UNL1        0.0009
     25 C          62.6218   85.9440   11.9230 C.3     1  UNL1        0.1934
     26 N          62.2643   85.6834   10.4897 N.ar    1  UNL1       -0.2979
     27 C          61.0286   86.2973    9.9014 C.ar    1  UNL1        0.0786
     28 C          60.6711   86.0367    8.4681 C.ar    1  UNL1        0.0574
     29 C          61.5494   85.1622    7.6231 C.ar    1  UNL1        0.2786
     30 O          61.1920   84.9016    6.1899 O.2     1  UNL1       -0.2654
     31 N          62.7851   84.5483    8.2115 N.ar    1  UNL1       -0.1847
     32 C          63.1426   84.8089    9.6448 C.ar    1  UNL1        0.1750
     33 C          59.4354   86.6506    7.8797 C.3     1  UNL1        0.0622
     34 C          59.4097   88.1132    7.5475 C.ar    1  UNL1        0.0220
     35 C          60.0056   89.2152    8.3723 C.ar    1  UNL1        0.1177
     36 N          59.7478   90.5136    7.6667 N.ar    1  UNL1       -0.1679
     37 N          58.9925   90.2139    6.4058 N.ar    1  UNL1       -0.2477
     38 C          58.5278   91.2209    5.3959 C.3     1  UNL1        0.1537
     39 C          58.7836   88.7304    6.3322 C.ar    1  UNL1        0.0927
     40 S          64.3782   84.1951   10.2332 S.3     1  UNL1       -0.0724
     41 C          64.6168   82.7197   10.1048 C.3     1  UNL1        0.0913
     42 C          63.9441   81.7664   11.0474 C.ar    1  UNL1       -0.0108
     43 C          64.0597   81.9697   12.5290 C.ar    1  UNL1       -0.0011
     44 C          63.3869   81.0163   13.4717 C.ar    1  UNL1        0.0293
     45 C          62.5985   79.8597   12.9327 C.ar    1  UNL1        0.1401
     46 F          61.9257   78.9064   13.8753 F       1  UNL1       -0.2042
     47 C          62.4828   79.6564   11.4510 C.ar    1  UNL1        0.0293
     48 C          63.1556   80.6097   10.5084 C.ar    1  UNL1       -0.0011
@<TRIPOS>BOND
     1     7     8    1
     2     8     6    1
     3     6     9    1
     4     9    10    1
     5     6     5    1
     6     5     4    1
     7     4     1    1
     8     1    11    1
     9    11    12    1
    10    12    13   ar
    11    13    14   ar
    12    14    15   ar
    13    15    18    1
    14    18    19   ar
    15    19    20   ar
    16    20    21   ar
    17    21    22    1
    18    21    23   ar
    19    23    24   ar
    20    15    16   ar
    21    16    17   ar
    22     1     2   am
    23     2     3    2
    24     2    25    1
    25    25    26    1
    26    26    27   ar
    27    27    28   ar
    28    28    33    1
    29    33    34    1
    30    34    35   ar
    31    35    36   ar
    32    36    37   ar
    33    37    38    1
    34    37    39   ar
    35    28    29   ar
    36    29    30    2
    37    29    31   ar
    38    31    32   ar
    39    32    40    1
    40    40    41    1
    41    41    42    1
    42    42    43   ar
    43    43    44   ar
    44    44    45   ar
    45    45    46    1
    46    45    47   ar
    47    47    48   ar
    48    17    12   ar
    49    32    26   ar
    50    48    42   ar
    51    24    18   ar
    52    39    34   ar
@<TRIPOS>MOLECULE
*****
 48 52 0 0 0
SMALL
GASTEIGER

@<TRIPOS>ATOM
      1 N          61.7942   87.0610   11.7155 N.am    1  UNL1       -0.2724
      2 C          62.1877   88.2775   12.4999 C.2     1  UNL1        0.2491
      3 O          61.2763   89.4679   12.5454 O.2     1  UNL1       -0.2727
      4 C          62.7057   85.8706   11.6700 C.3     1  UNL1        0.1111
      5 C          62.3297   84.6688   10.8551 C.3     1  UNL1        0.0939
      6 N          63.3147   84.0796    9.8893 N.3     1  UNL1       -0.2712
      7 C          62.3566   85.5132    7.9458 C.3     1  UNL1        0.0188
      8 C          63.4499   84.6557    8.5109 C.3     1  UNL1        0.0722
      9 C          64.1644   82.9143   10.3018 C.3     1  UNL1        0.0722
     10 C          63.5414   81.5638   10.4972 C.3     1  UNL1        0.0188
     11 C          60.4891   87.0350   10.9764 C.3     1  UNL1        0.1202
     12 C          60.3048   87.8788    9.7500 C.ar    1  UNL1       -0.0023
     13 C          60.9428   89.2339    9.6691 C.ar    1  UNL1       -0.0026
     14 C          60.7584   90.0776    8.4427 C.ar    1  UNL1       -0.0003
     15 C          59.9360   89.5662    7.2972 C.ar    1  UNL1       -0.0000
     16 C          59.2980   88.2111    7.3781 C.ar    1  UNL1       -0.0003
     17 C          59.4824   87.3674    8.6045 C.ar    1  UNL1       -0.0026
     18 C          59.7517   90.4100    6.0707 C.ar    1  UNL1        0.0001
     19 C          58.3826   90.8896    5.6892 C.ar    1  UNL1        0.0009
     20 C          58.1982   91.7334    4.4627 C.ar    1  UNL1        0.0114
     21 C          59.3830   92.0976    3.6179 C.ar    1  UNL1        0.0577
     22 CL         59.1987   92.9413    2.3915 Cl      1  UNL1       -0.0822
     23 C          60.7521   91.6180    3.9995 C.ar    1  UNL1        0.0114
     24 C          60.9364   90.7742    5.2259 C.ar    1  UNL1        0.0009
     25 C          63.4928   88.3034   13.2390 C.3     1  UNL1        0.1934
     26 N          63.7853   89.4125   14.2057 N.ar    1  UNL1       -0.2979
     27 C          64.5689   90.6106   13.7578 C.ar    1  UNL1        0.0786
     28 C          64.8614   91.7196   14.7245 C.ar    1  UNL1        0.0574
     29 C          64.3703   91.6305   16.1391 C.ar    1  UNL1        0.2786
     30 O          64.6628   92.7395   17.1058 O.2     1  UNL1       -0.2654
     31 N          63.5868   90.4324   16.5869 N.ar    1  UNL1       -0.1847
     32 C          63.2943   89.3234   15.6202 C.ar    1  UNL1        0.1750
     33 C          65.6449   92.9177   14.2767 C.3     1  UNL1        0.0622
     34 C          67.1251   92.9768   14.5124 C.ar    1  UNL1        0.0220
     35 C          68.1680   92.1949   13.7701 C.ar    1  UNL1        0.1177
     36 N          69.5097   92.5630   14.3307 N.ar    1  UNL1       -0.1679
     37 N          69.2961   93.5725   15.4195 N.ar    1  UNL1       -0.2477
     38 C          70.3680   94.2136   16.2501 C.3     1  UNL1        0.1537
     39 C          67.8223   93.8282   15.5317 C.ar    1  UNL1        0.0927
     40 S          62.5107   88.1253   16.0680 S.3     1  UNL1       -0.0724
     41 C          63.2141   86.9663   16.7101 C.3     1  UNL1        0.0913
     42 C          63.4725   85.7161   15.9225 C.ar    1  UNL1       -0.0108
     43 C          64.7024   85.6071   15.0709 C.ar    1  UNL1       -0.0011
     44 C          64.9609   84.3569   14.2832 C.ar    1  UNL1        0.0293
     45 C          63.9894   83.2158   14.3473 C.ar    1  UNL1        0.1401
     46 F          64.2478   81.9656   13.5598 F       1  UNL1       -0.2042
     47 C          62.7594   83.3249   15.1990 C.ar    1  UNL1        0.0293
     48 C          62.5010   84.5750   15.9866 C.ar    1  UNL1       -0.0011
@<TRIPOS>BOND
     1     7     8    1
     2     8     6    1
     3     6     9    1
     4     9    10    1
     5     6     5    1
     6     5     4    1
     7     4     1    1
     8     1    11    1
     9    11    12    1
    10    12    13   ar
    11    13    14   ar
    12    14    15   ar
    13    15    18    1
    14    18    19   ar
    15    19    20   ar
    16    20    21   ar
    17    21    22    1
    18    21    23   ar
    19    23    24   ar
    20    15    16   ar
    21    16    17   ar
    22     1     2   am
    23     2     3    2
    24     2    25    1
    25    25    26    1
    26    26    27   ar
    27    27    28   ar
    28    28    33    1
    29    33    34    1
    30    34    35   ar
    31    35    36   ar
    32    36    37   ar
    33    37    38    1
    34    37    39   ar
    35    28    29   ar
    36    29    30    2
    37    29    31   ar
    38    31    32   ar
    39    32    40    1
    40    40    41    1
    41    41    42    1
    42    42    43   ar
    43    43    44   ar
    44    44    45   ar
    45    45    46    1
    46    45    47   ar
    47    47    48   ar
    48    17    12   ar
    49    32    26   ar
    50    48    42   ar
    51    24    18   ar
    52    39    34   ar
@<TRIPOS>MOLECULE
*****
 48 52 0 0 0
SMALL
GASTEIGER

@<TRIPOS>ATOM
      1 N          61.5621   87.3015   11.2983 N.am    1  UNL1       -0.2724
      2 C          62.2273   88.5062   11.8952 C.2     1  UNL1        0.2491
      3 O          61.5611   89.8477   11.8152 O.2     1  UNL1       -0.2727
      4 C          62.2285   85.9600   11.3785 C.3     1  UNL1        0.1111
      5 C          62.0004   84.9436   10.2992 C.3     1  UNL1        0.0939
      6 N          63.1330   84.5301    9.4069 N.3     1  UNL1       -0.2712
      7 C          63.8186   82.1873   10.2963 C.3     1  UNL1        0.0188
      8 C          64.1858   83.5914    9.9175 C.3     1  UNL1        0.0722
      9 C          63.2130   85.0553    8.0042 C.3     1  UNL1        0.0722
     10 C          62.0415   84.9056    7.0793 C.3     1  UNL1        0.0188
     11 C          60.2306   87.4384   10.6214 C.3     1  UNL1        0.1202
     12 C          60.1055   88.2579    9.3712 C.ar    1  UNL1       -0.0023
     13 C          60.6399   89.6590    9.3363 C.ar    1  UNL1       -0.0026
     14 C          60.5148   90.4784    8.0861 C.ar    1  UNL1       -0.0003
     15 C          59.8553   89.8967    6.8709 C.ar    1  UNL1       -0.0000
     16 C          59.3209   88.4956    6.9059 C.ar    1  UNL1       -0.0003
     17 C          59.4460   87.6762    8.1560 C.ar    1  UNL1       -0.0026
     18 C          59.7302   90.7162    5.6208 C.ar    1  UNL1        0.0001
     19 C          58.3821   91.1938    5.1688 C.ar    1  UNL1        0.0009
     20 C          58.2570   92.0133    3.9186 C.ar    1  UNL1        0.0114
     21 C          59.4801   92.3552    3.1205 C.ar    1  UNL1        0.0577
     22 CL         59.3551   93.1746    1.8704 Cl      1  UNL1       -0.0822
     23 C          60.8283   91.8775    3.5725 C.ar    1  UNL1        0.0114
     24 C          60.9534   91.0581    4.8226 C.ar    1  UNL1        0.0009
     25 C          63.5589   88.3693   12.5723 C.3     1  UNL1        0.1934
     26 N          63.6633   87.6465   13.8825 N.ar    1  UNL1       -0.2979
     27 C          64.0096   86.1872   13.9085 C.ar    1  UNL1        0.0786
     28 C          64.1140   85.4645   15.2187 C.ar    1  UNL1        0.0574
     29 C          63.8721   86.2010   16.5029 C.ar    1  UNL1        0.2786
     30 O          63.9765   85.4782   17.8132 O.2     1  UNL1       -0.2654
     31 N          63.5259   87.6602   16.4769 N.ar    1  UNL1       -0.1847
     32 C          63.4215   88.3830   15.1666 C.ar    1  UNL1        0.1750
     33 C          64.4602   84.0052   15.2448 C.3     1  UNL1        0.0622
     34 C          63.4903   82.9945   14.7082 C.ar    1  UNL1        0.0220
     35 C          62.0002   83.0264   14.8769 C.ar    1  UNL1        0.1177
     36 N          61.4292   81.8261   14.1818 N.ar    1  UNL1       -0.1679
     37 N          62.5665   81.0524   13.5834 N.ar    1  UNL1       -0.2477
     38 C          62.4503   79.7800   12.7976 C.3     1  UNL1        0.1537
     39 C          63.8403   81.7745   13.9088 C.ar    1  UNL1        0.0927
     40 S          63.0752   89.8422   15.1406 S.3     1  UNL1       -0.0724
     41 C          64.1379   90.8699   15.3951 C.3     1  UNL1        0.0913
     42 C          64.9789   91.3759   14.2609 C.ar    1  UNL1       -0.0108
     43 C          66.4538   91.5728   14.4506 C.ar    1  UNL1       -0.0011
     44 C          67.2949   92.0789   13.3163 C.ar    1  UNL1        0.0293
     45 C          66.6611   92.3880   11.9924 C.ar    1  UNL1        0.1401
     46 F          67.5022   92.8940   10.8582 F       1  UNL1       -0.2042
     47 C          65.1862   92.1911   11.8028 C.ar    1  UNL1        0.0293
     48 C          64.3451   91.6850   12.9370 C.ar    1  UNL1       -0.0011
@<TRIPOS>BOND
     1     7     8    1
     2     8     6    1
     3     6     9    1
     4     9    10    1
     5     6     5    1
     6     5     4    1
     7     4     1    1
     8     1    11    1
     9    11    12    1
    10    12    13   ar
    11    13    14   ar
    12    14    15   ar
    13    15    18    1
    14    18    19   ar
    15    19    20   ar
    16    20    21   ar
    17    21    22    1
    18    21    23   ar
    19    23    24   ar
    20    15    16   ar
    21    16    17   ar
    22     1     2   am
    23     2     3    2
    24     2    25    1
    25    25    26    1
    26    26    27   ar
    27    27    28   ar
    28    28    33    1
    29    33    34    1
    30    34    35   ar
    31    35    36   ar
    32    36    37   ar
    33    37    38    1
    34    37    39   ar
    35    28    29   ar
    36    29    30    2
    37    29    31   ar
    38    31    32   ar
    39    32    40    1
    40    40    41    1
    41    41    42    1
    42    42    43   ar
    43    43    44   ar
    44    44    45   ar
    45    45    46    1
    46    45    47   ar
    47    47    48   ar
    48    17    12   ar
    49    32    26   ar
    50    48    42   ar
    51    24    18   ar
    52    39    34   ar
