@<TRIPOS>MOLECULE
*****
 13 14 0 0 0
SMALL
GASTEIGER

@<TRIPOS>ATOM
      1 N          68.7556   91.9911   13.6477 N.pl3   1  UNL1       -0.3267
      2 C          67.2645   91.9706   13.4851 C.ar    1  UNL1        0.2237
      3 O          66.2690   91.5661   14.5316 O.2     1  UNL1       -0.3387
      4 N          64.8964   91.6964   13.9408 N.ar    1  UNL1       -0.0738
      5 C          65.0437   92.1815   12.5290 C.ar    1  UNL1        0.1451
      6 C          66.5073   92.3510   12.2474 C.ar    1  UNL1        0.0742
      7 H          69.1612   91.7221   14.5035 H       1  UNL1        0.1452
      8 H          69.3286   92.2736   12.8986 H       1  UNL1        0.1452
      9 C          67.1081   92.8187   10.9550 C.ar    1  UNL1        0.0129
     10 C          68.0707   92.0485   10.1005 C.ar    1  UNL1        0.0077
     11 C          68.4093   92.8924    8.9076 C.ar    1  UNL1        0.0355
     12 S          67.6559   94.1843    9.0248 S.2     1  UNL1       -0.0859
     13 C          66.8517   94.1386   10.2902 C.ar    1  UNL1        0.0356
@<TRIPOS>BOND
     1     1     2    1
     2     2     3   ar
     3     3     4   ar
     4     4     5   ar
     5     5     6   ar
     6     6     9    1
     7     9    10   ar
     8    10    11   ar
     9    11    12   ar
    10    12    13   ar
    11     6     2   ar
    12    13     9   ar
    13     1     7    1
    14     1     8    1
@<TRIPOS>MOLECULE
*****
 13 14 0 0 0
SMALL
GASTEIGER

@<TRIPOS>ATOM
      1 N          64.5843   84.5663   15.0989 N.pl3   1  UNL1       -0.3267
      2 C          63.8019   85.1240   13.9470 C.ar    1  UNL1        0.2237
      3 O          63.7293   86.5679   13.5472 O.2     1  UNL1       -0.3387
      4 N          62.8373   86.6721   12.3458 N.ar    1  UNL1       -0.0738
      5 C          62.3584   85.2925   12.0031 C.ar    1  UNL1        0.1451
      6 C          62.9546   84.3358   12.9927 C.ar    1  UNL1        0.0742
      7 H          65.1132   85.1674   15.6717 H       1  UNL1        0.1452
      8 H          64.5689   83.5991   15.2821 H       1  UNL1        0.1452
      9 C          62.7410   82.8514   13.0226 C.ar    1  UNL1        0.0129
     10 C          63.1247   81.8834   11.9428 C.ar    1  UNL1        0.0077
     11 C          62.7270   80.5081   12.3904 C.ar    1  UNL1        0.0355
     12 S          62.0974   80.6260   13.7469 S.2     1  UNL1       -0.0859
     13 C          62.1061   82.0743   14.1375 C.ar    1  UNL1        0.0356
@<TRIPOS>BOND
     1     1     2    1
     2     2     3   ar
     3     3     4   ar
     4     4     5   ar
     5     5     6   ar
     6     6     9    1
     7     9    10   ar
     8    10    11   ar
     9    11    12   ar
    10    12    13   ar
    11     6     2   ar
    12    13     9   ar
    13     1     7    1
    14     1     8    1
@<TRIPOS>MOLECULE
*****
 13 14 0 0 0
SMALL
GASTEIGER

@<TRIPOS>ATOM
      1 N          64.9724   92.7121   16.9081 N.pl3   1  UNL1       -0.3267
      2 C          64.2676   91.5598   16.2557 C.ar    1  UNL1        0.2237
      3 O          63.1945   90.7162   16.8776 O.2     1  UNL1       -0.3387
      4 N          62.7758   89.6839   15.8731 N.ar    1  UNL1       -0.0738
      5 C          63.5902   89.8895   14.6303 C.ar    1  UNL1        0.1451
      6 C          64.5122   91.0488   14.8668 C.ar    1  UNL1        0.0742
      7 H          64.7407   92.9734   17.8286 H       1  UNL1        0.1452
      8 H          65.6665   93.2070   16.4158 H       1  UNL1        0.1452
      9 C          65.5045   91.6004   13.8864 C.ar    1  UNL1        0.0129
     10 C          66.9951   91.6125   14.0531 C.ar    1  UNL1        0.0077
     11 C          67.5923   92.2562   12.8370 C.ar    1  UNL1        0.0355
     12 S          66.4708   92.6419   11.9186 S.2     1  UNL1       -0.0859
     13 C          65.1803   92.2365   12.5672 C.ar    1  UNL1        0.0356
@<TRIPOS>BOND
     1     1     2    1
     2     2     3   ar
     3     3     4   ar
     4     4     5   ar
     5     5     6   ar
     6     6     9    1
     7     9    10   ar
     8    10    11   ar
     9    11    12   ar
    10    12    13   ar
    11     6     2   ar
    12    13     9   ar
    13     1     7    1
    14     1     8    1
@<TRIPOS>MOLECULE
*****
 13 14 0 0 0
SMALL
GASTEIGER

@<TRIPOS>ATOM
      1 N          63.9377   91.5245   10.8011 N.pl3   1  UNL1       -0.3267
      2 C          64.7000   91.9462   12.0222 C.ar    1  UNL1        0.2237
      3 O          64.2526   91.7750   13.4436 O.2     1  UNL1       -0.3387
      4 N          65.3197   92.3361   14.3362 N.ar    1  UNL1       -0.0738
      5 C          66.4265   92.8540   13.4664 C.ar    1  UNL1        0.1451
      6 C          66.0436   92.6130   12.0363 C.ar    1  UNL1        0.0742
      7 H          63.0584   91.0918   10.8948 H       1  UNL1        0.1452
      8 H          64.3167   91.6805    9.9059 H       1  UNL1        0.1452
      9 C          66.8607   92.9753   10.8317 C.ar    1  UNL1        0.0129
     10 C          67.8873   92.1055   10.1686 C.ar    1  UNL1        0.0077
     11 C          68.4558   92.8635    9.0058 C.ar    1  UNL1        0.0355
     12 S          67.7807   94.2019    8.9502 S.2     1  UNL1       -0.0859
     13 C          66.7948   94.2709   10.0787 C.ar    1  UNL1        0.0356
@<TRIPOS>BOND
     1     1     2    1
     2     2     3   ar
     3     3     4   ar
     4     4     5   ar
     5     5     6   ar
     6     6     9    1
     7     9    10   ar
     8    10    11   ar
     9    11    12   ar
    10    12    13   ar
    11     6     2   ar
    12    13     9   ar
    13     1     7    1
    14     1     8    1
@<TRIPOS>MOLECULE
*****
 13 14 0 0 0
SMALL
GASTEIGER

@<TRIPOS>ATOM
      1 N          63.4522   85.3718   14.4433 N.pl3   1  UNL1       -0.3267
      2 C          63.0945   83.9458   14.1453 C.ar    1  UNL1        0.2237
      3 O          62.9985   82.8332   15.1466 O.2     1  UNL1       -0.3387
      4 N          62.6147   81.5819   14.4138 N.ar    1  UNL1       -0.0738
      5 C          62.4736   81.9212   12.9596 C.ar    1  UNL1        0.1451
      6 C          62.7701   83.3822   12.7936 C.ar    1  UNL1        0.0742
      7 H          63.6498   85.6468   15.3677 H       1  UNL1        0.1452
      8 H          63.4894   86.0326   13.7144 H       1  UNL1        0.1452
      9 C          62.7464   84.1455   11.5026 C.ar    1  UNL1        0.0129
     10 C          63.5103   83.7986   10.2591 C.ar    1  UNL1        0.0077
     11 C          63.1907   84.8284    9.2163 C.ar    1  UNL1        0.0355
     12 S          62.2292   85.8118    9.8153 S.2     1  UNL1       -0.0859
     13 C          61.9547   85.3897   11.2283 C.ar    1  UNL1        0.0356
@<TRIPOS>BOND
     1     1     2    1
     2     2     3   ar
     3     3     4   ar
     4     4     5   ar
     5     5     6   ar
     6     6     9    1
     7     9    10   ar
     8    10    11   ar
     9    11    12   ar
    10    12    13   ar
    11     6     2   ar
    12    13     9   ar
    13     1     7    1
    14     1     8    1
@<TRIPOS>MOLECULE
*****
 13 14 0 0 0
SMALL
GASTEIGER

@<TRIPOS>ATOM
      1 N          67.9753   91.9489    9.6980 N.pl3   1  UNL1       -0.3267
      2 C          67.4083   93.3121    9.9629 C.ar    1  UNL1        0.2237
      3 O          68.0097   94.6164    9.5307 O.2     1  UNL1       -0.3387
      4 N          67.1134   95.7208   10.0071 N.ar    1  UNL1       -0.0738
      5 C          65.9579   95.0989   10.7339 C.ar    1  UNL1        0.1451
      6 C          66.1402   93.6103   10.7066 C.ar    1  UNL1        0.0742
      7 H          68.8182   91.8550    9.1980 H       1  UNL1        0.1452
      8 H          67.5046   91.1481   10.0242 H       1  UNL1        0.1452
      9 C          65.2165   92.5976   11.3159 C.ar    1  UNL1        0.0129
     10 C          64.1582   91.8206   10.5905 C.ar    1  UNL1        0.0077
     11 C          63.4765   90.9269   11.5839 C.ar    1  UNL1        0.0355
     12 S          64.1135   91.1517   12.9232 S.2     1  UNL1       -0.0859
     13 C          65.1889   92.1843   12.7576 C.ar    1  UNL1        0.0356
@<TRIPOS>BOND
     1     1     2    1
     2     2     3   ar
     3     3     4   ar
     4     4     5   ar
     5     5     6   ar
     6     6     9    1
     7     9    10   ar
     8    10    11   ar
     9    11    12   ar
    10    12    13   ar
    11     6     2   ar
    12    13     9   ar
    13     1     7    1
    14     1     8    1
@<TRIPOS>MOLECULE
*****
 13 14 0 0 0
SMALL
GASTEIGER

@<TRIPOS>ATOM
      1 N          65.7340   84.4994   14.4515 N.pl3   1  UNL1       -0.3267
      2 C          64.3681   84.6750   15.0461 C.ar    1  UNL1        0.2237
      3 O          63.9939   85.6497   16.1230 O.2     1  UNL1       -0.3387
      4 N          62.5311   85.4837   16.4106 N.ar    1  UNL1       -0.0738
      5 C          62.0013   84.4064   15.5115 C.ar    1  UNL1        0.1451
      6 C          63.1366   83.9065   14.6681 C.ar    1  UNL1        0.0742
      7 H          66.4834   85.0542   14.7675 H       1  UNL1        0.1452
      8 H          65.8811   83.8295   13.7453 H       1  UNL1        0.1452
      9 C          63.0548   82.8276   13.6293 C.ar    1  UNL1        0.0129
     10 C          62.7152   81.3879   13.8782 C.ar    1  UNL1        0.0077
     11 C          62.7487   80.6695   12.5619 C.ar    1  UNL1        0.0355
     12 S          63.1089   81.6652   11.4993 S.2     1  UNL1       -0.0859
     13 C          63.2981   82.9990   12.1591 C.ar    1  UNL1        0.0356
@<TRIPOS>BOND
     1     1     2    1
     2     2     3   ar
     3     3     4   ar
     4     4     5   ar
     5     5     6   ar
     6     6     9    1
     7     9    10   ar
     8    10    11   ar
     9    11    12   ar
    10    12    13   ar
    11     6     2   ar
    12    13     9   ar
    13     1     7    1
    14     1     8    1
@<TRIPOS>MOLECULE
*****
 13 14 0 0 0
SMALL
GASTEIGER

@<TRIPOS>ATOM
      1 N          64.0965   91.1359   12.1298 N.pl3   1  UNL1       -0.3267
      2 C          63.6949   90.6765   13.5001 C.ar    1  UNL1        0.2237
      3 O          62.4512   89.9118   13.8444 O.2     1  UNL1       -0.3387
      4 N          62.4541   89.6638   15.3238 N.ar    1  UNL1       -0.0738
      5 C          63.6995   90.2753   15.8938 C.ar    1  UNL1        0.1451
      6 C          64.4663   90.9012   14.7667 C.ar    1  UNL1        0.0742
      7 H          63.5204   90.9391   11.3561 H       1  UNL1        0.1452
      8 H          64.9362   91.6343   12.0042 H       1  UNL1        0.1452
      9 C          65.7749   91.6247   14.8854 C.ar    1  UNL1        0.0129
     10 C          66.9591   91.4595   13.9796 C.ar    1  UNL1        0.0077
     11 C          68.0451   92.3732   14.4652 C.ar    1  UNL1        0.0355
     12 S          67.5322   93.1031   15.6711 S.2     1  UNL1       -0.0859
     13 C          66.1291   92.6405   15.9308 C.ar    1  UNL1        0.0356
@<TRIPOS>BOND
     1     1     2    1
     2     2     3   ar
     3     3     4   ar
     4     4     5   ar
     5     5     6   ar
     6     6     9    1
     7     9    10   ar
     8    10    11   ar
     9    11    12   ar
    10    12    13   ar
    11     6     2   ar
    12    13     9   ar
    13     1     7    1
    14     1     8    1
@<TRIPOS>MOLECULE
*****
 13 14 0 0 0
SMALL
GASTEIGER

@<TRIPOS>ATOM
      1 N          62.3513   82.3640   14.9429 N.pl3   1  UNL1       -0.3267
      2 C          62.8946   83.7617   14.9795 C.ar    1  UNL1        0.2237
      3 O          62.9449   84.6570   16.1819 O.2     1  UNL1       -0.3387
      4 N          63.5644   85.9581   15.7656 N.ar    1  UNL1       -0.0738
      5 C          63.8970   85.8670   14.3057 C.ar    1  UNL1        0.1451
      6 C          63.4830   84.5095   13.8199 C.ar    1  UNL1        0.0742
      7 H          61.9839   81.9572   15.7607 H       1  UNL1        0.1452
      8 H          62.3620   81.8536   14.1012 H       1  UNL1        0.1452
      9 C          63.6315   83.9909   12.4203 C.ar    1  UNL1        0.0129
     10 C          63.0193   84.5896   11.1887 C.ar    1  UNL1        0.0077
     11 C          63.4276   83.7514   10.0137 C.ar    1  UNL1        0.0355
     12 S          64.2922   82.6346   10.5191 S.2     1  UNL1       -0.0859
     13 C          64.4182   82.7827   12.0065 C.ar    1  UNL1        0.0356
@<TRIPOS>BOND
     1     1     2    1
     2     2     3   ar
     3     3     4   ar
     4     4     5   ar
     5     5     6   ar
     6     6     9    1
     7     9    10   ar
     8    10    11   ar
     9    11    12   ar
    10    12    13   ar
    11     6     2   ar
    12    13     9   ar
    13     1     7    1
    14     1     8    1
