@<TRIPOS>MOLECULE
*****
 34 36 0 0 0
SMALL
GASTEIGER

@<TRIPOS>ATOM
      1 C          61.0211   88.9951   10.1002 C.ar    1  UNL1       -0.0024
      2 C          60.1543   88.8968    8.8800 C.ar    1  UNL1       -0.0026
      3 C          60.0622   87.6023    8.1277 C.ar    1  UNL1       -0.0001
      4 C          60.8368   86.4061    8.5958 C.ar    1  UNL1        0.0045
      5 C          61.7036   86.5044    9.8162 C.ar    1  UNL1        0.0531
      6 C          61.7957   87.7989   10.5683 C.ar    1  UNL1        0.0019
      7 C          62.4782   85.3082   10.2843 C.2     1  UNL1        0.2458
      8 O          63.3894   84.5868    9.3361 O.2     1  UNL1       -0.2701
      9 N          62.3415   84.8336   11.7007 N.am    1  UNL1       -0.3009
     10 H          61.7435   85.3071   12.3230 H       1  UNL1        0.1497
     11 C          63.1161   83.6374   12.1688 C.3     1  UNL1        0.0897
     12 C          64.0265   83.7508   13.3555 C.3     1  UNL1        0.0226
     13 C          63.6763   84.6751   14.4838 C.3     1  UNL1        0.0175
     14 C          64.4037   85.9776   14.6396 C.3     1  UNL1        0.0029
     15 C          64.0534   86.9019   15.7679 C.3     1  UNL1        0.0171
     16 C          62.9759   86.5236   16.7404 C.3     1  UNL1        0.0686
     17 N          62.2485   85.2211   16.5846 N.3     1  UNL1       -0.2975
     18 C          62.5987   84.2968   15.4563 C.3     1  UNL1        0.0686
     19 H          61.2589   85.4467   16.4840 H       1  UNL1        0.1232
     20 C          61.1132   90.2896   10.8524 C.3     1  UNL1        0.1166
     21 C          63.0253   90.5587   12.5906 C.2     1  UNL1        0.2462
     22 O          62.2541   89.7226   13.5684 O.2     1  UNL1       -0.2701
     23 N          62.4549   90.8422   11.2326 N.am    1  UNL1       -0.2969
     24 H          62.9611   91.3910   10.5909 H       1  UNL1        0.1501
     25 C          67.0504   92.2165   13.7312 C.ar    1  UNL1        0.1724
     26 C          66.4046   91.1633   14.5819 C.ar    1  UNL1        0.0402
     27 C          65.0629   90.6107   14.2017 C.ar    1  UNL1        0.0078
     28 C          64.3670   91.1113   12.9708 C.ar    1  UNL1        0.0566
     29 C          65.0128   92.1645   12.1201 C.ar    1  UNL1        0.0446
     30 C          66.3545   92.7171   12.5003 C.ar    1  UNL1        0.1725
     31 C          68.6902   93.0948   15.5449 C.3     1  UNL1        0.2526
     32 O          68.3920   92.7691   14.1114 O.3     1  UNL1       -0.4684
     33 O          67.0002   93.7704   11.6496 O.3     1  UNL1       -0.4684
     34 C          66.1996   94.9472   11.1764 C.3     1  UNL1        0.2526
@<TRIPOS>BOND
     1    31    32    1
     2    32    25    1
     3    25    26   ar
     4    26    27   ar
     5    27    28   ar
     6    28    21    1
     7    21    22    2
     8    21    23   am
     9    23    20    1
    10    20     1    1
    11     1     2   ar
    12     2     3   ar
    13     3     4   ar
    14     4     5   ar
    15     5     7    1
    16     7     8    2
    17     7     9   am
    18     9    11    1
    19    11    12    1
    20    12    13    1
    21    13    14    1
    22    14    15    1
    23    15    16    1
    24    16    17    1
    25    17    18    1
    26     5     6   ar
    27    28    29   ar
    28    29    30   ar
    29    30    33    1
    30    33    34    1
    31    30    25   ar
    32     6     1   ar
    33    18    13    1
    34    23    24    1
    35     9    10    1
    36    17    19    1
@<TRIPOS>MOLECULE
*****
 34 36 0 0 0
SMALL
GASTEIGER

@<TRIPOS>ATOM
      1 C          61.0360   88.8281   10.4641 C.ar    1  UNL1       -0.0024
      2 C          59.9838   89.1222    9.4363 C.ar    1  UNL1       -0.0026
      3 C          59.8023   88.2033    8.2647 C.ar    1  UNL1       -0.0001
      4 C          60.6730   86.9904    8.1208 C.ar    1  UNL1        0.0045
      5 C          61.7252   86.6963    9.1486 C.ar    1  UNL1        0.0531
      6 C          61.9067   87.6152   10.3202 C.ar    1  UNL1        0.0019
      7 C          62.5959   85.4834    9.0048 C.2     1  UNL1        0.2458
      8 O          63.0431   85.0383    7.6440 O.2     1  UNL1       -0.2701
      9 N          63.0195   84.7156   10.2218 N.am    1  UNL1       -0.3009
     10 H          62.7260   85.0077   11.1150 H       1  UNL1        0.1497
     11 C          63.8902   83.5027   10.0780 C.3     1  UNL1        0.0897
     12 C          64.5410   82.8989   11.2871 C.3     1  UNL1        0.0226
     13 C          63.9265   83.0875   12.6424 C.3     1  UNL1        0.0175
     14 C          62.7910   82.2104   13.0797 C.3     1  UNL1        0.0029
     15 C          62.1766   82.3989   14.4350 C.3     1  UNL1        0.0171
     16 C          62.6977   83.4645   15.3531 C.3     1  UNL1        0.0686
     17 N          63.8332   84.3416   14.9158 N.3     1  UNL1       -0.2975
     18 C          64.4476   84.1531   13.5604 C.3     1  UNL1        0.0686
     19 H          64.5811   84.2170   15.5981 H       1  UNL1        0.1232
     20 C          61.2176   89.7470   11.6358 C.3     1  UNL1        0.1166
     21 C          63.1427   90.4163   13.2470 C.2     1  UNL1        0.2462
     22 O          62.4166   89.7634   14.3856 O.2     1  UNL1       -0.2701
     23 N          62.5432   90.4081   11.8721 N.am    1  UNL1       -0.2969
     24 H          63.0197   90.8366   11.1247 H       1  UNL1        0.1501
     25 C          67.1193   92.3996   13.9559 C.ar    1  UNL1        0.1724
     26 C          66.5694   91.4388   14.9680 C.ar    1  UNL1        0.0402
     27 C          65.2439   90.7777   14.7317 C.ar    1  UNL1        0.0078
     28 C          64.4682   91.0774   13.4833 C.ar    1  UNL1        0.0566
     29 C          65.0181   92.0382   12.4712 C.ar    1  UNL1        0.0446
     30 C          66.3437   92.6993   12.7075 C.ar    1  UNL1        0.1725
     31 C          69.0096   93.1341   15.5798 C.3     1  UNL1        0.2526
     32 O          68.4449   93.0607   14.1922 O.3     1  UNL1       -0.4684
     33 O          66.8936   93.6602   11.6954 O.3     1  UNL1       -0.4684
     34 C          65.9702   94.5881   10.9630 C.3     1  UNL1        0.2526
@<TRIPOS>BOND
     1    31    32    1
     2    32    25    1
     3    25    26   ar
     4    26    27   ar
     5    27    28   ar
     6    28    21    1
     7    21    22    2
     8    21    23   am
     9    23    20    1
    10    20     1    1
    11     1     2   ar
    12     2     3   ar
    13     3     4   ar
    14     4     5   ar
    15     5     7    1
    16     7     8    2
    17     7     9   am
    18     9    11    1
    19    11    12    1
    20    12    13    1
    21    13    14    1
    22    14    15    1
    23    15    16    1
    24    16    17    1
    25    17    18    1
    26     5     6   ar
    27    28    29   ar
    28    29    30   ar
    29    30    33    1
    30    33    34    1
    31    30    25   ar
    32     6     1   ar
    33    18    13    1
    34    23    24    1
    35     9    10    1
    36    17    19    1
@<TRIPOS>MOLECULE
*****
 34 36 0 0 0
SMALL
GASTEIGER

@<TRIPOS>ATOM
      1 C          63.5343   85.6629   15.0882 C.ar    1  UNL1       -0.0024
      2 C          62.8869   84.5973   15.9219 C.ar    1  UNL1       -0.0026
      3 C          62.5539   83.2674   15.3128 C.ar    1  UNL1       -0.0001
      4 C          62.8684   83.0034   13.8701 C.ar    1  UNL1        0.0045
      5 C          63.5160   84.0692   13.0365 C.ar    1  UNL1        0.0531
      6 C          63.8489   85.3989   13.6455 C.ar    1  UNL1        0.0019
      7 C          63.8305   83.8052   11.5938 C.2     1  UNL1        0.2458
      8 O          64.9130   82.8335   11.2278 O.2     1  UNL1       -0.2701
      9 N          63.0625   84.5129   10.5170 N.am    1  UNL1       -0.3009
     10 H          62.3520   85.1506   10.7572 H       1  UNL1        0.1497
     11 C          63.3770   84.2488    9.0743 C.3     1  UNL1        0.0897
     12 C          62.9485   85.2280    8.0219 C.3     1  UNL1        0.0226
     13 C          61.6425   85.9529    8.1592 C.3     1  UNL1        0.0175
     14 C          61.5181   87.0990    9.1188 C.3     1  UNL1        0.0029
     15 C          60.2122   87.8239    9.2561 C.3     1  UNL1        0.0171
     16 C          59.0306   87.4028    8.4336 C.3     1  UNL1        0.0686
     17 N          59.1550   86.2568    7.4740 N.3     1  UNL1       -0.2975
     18 C          60.4609   85.5318    7.3367 C.3     1  UNL1        0.0686
     19 H          58.9212   86.6198    6.5499 H       1  UNL1        0.1232
     20 C          63.8673   86.9927   15.6972 C.3     1  UNL1        0.1166
     21 C          63.9949   89.4225   14.7862 C.2     1  UNL1        0.2462
     22 O          62.7260   89.7608   15.5109 O.2     1  UNL1       -0.2701
     23 N          64.5656   88.0385   14.8793 N.am    1  UNL1       -0.2969
     24 H          65.3985   87.8164   14.4037 H       1  UNL1        0.1501
     25 C          66.0897   92.5596   12.3326 C.ar    1  UNL1        0.1724
     26 C          64.7682   92.0126   11.8805 C.ar    1  UNL1        0.0402
     27 C          64.0700   90.9669   12.6984 C.ar    1  UNL1        0.0078
     28 C          64.6932   90.4682   13.9683 C.ar    1  UNL1        0.0566
     29 C          66.0147   91.0152   14.4204 C.ar    1  UNL1        0.0446
     30 C          66.7129   92.0609   13.6025 C.ar    1  UNL1        0.1725
     31 C          66.2030   94.9817   11.3996 C.3     1  UNL1        0.2526
     32 O          66.7880   93.6053   11.5147 O.3     1  UNL1       -0.4684
     33 O          68.0345   92.6078   14.0547 O.3     1  UNL1       -0.4684
     34 C          68.4625   92.4496   15.4836 C.3     1  UNL1        0.2526
@<TRIPOS>BOND
     1    31    32    1
     2    32    25    1
     3    25    26   ar
     4    26    27   ar
     5    27    28   ar
     6    28    21    1
     7    21    22    2
     8    21    23   am
     9    23    20    1
    10    20     1    1
    11     1     2   ar
    12     2     3   ar
    13     3     4   ar
    14     4     5   ar
    15     5     7    1
    16     7     8    2
    17     7     9   am
    18     9    11    1
    19    11    12    1
    20    12    13    1
    21    13    14    1
    22    14    15    1
    23    15    16    1
    24    16    17    1
    25    17    18    1
    26     5     6   ar
    27    28    29   ar
    28    29    30   ar
    29    30    33    1
    30    33    34    1
    31    30    25   ar
    32     6     1   ar
    33    18    13    1
    34    23    24    1
    35     9    10    1
    36    17    19    1
@<TRIPOS>MOLECULE
*****
 34 36 0 0 0
SMALL
GASTEIGER

@<TRIPOS>ATOM
      1 C          60.3171   88.1299    9.9627 C.ar    1  UNL1       -0.0024
      2 C          59.2014   88.1272    8.9602 C.ar    1  UNL1       -0.0026
      3 C          59.1868   87.1108    7.8570 C.ar    1  UNL1       -0.0001
      4 C          60.2879   86.0972    7.7565 C.ar    1  UNL1        0.0045
      5 C          61.4036   86.0999    8.7592 C.ar    1  UNL1        0.0531
      6 C          61.4182   87.1162    9.8623 C.ar    1  UNL1        0.0019
      7 C          62.5047   85.0863    8.6587 C.2     1  UNL1        0.2458
      8 O          62.9993   84.6472    7.3124 O.2     1  UNL1       -0.2701
      9 N          63.1113   84.5118    9.9045 N.am    1  UNL1       -0.3009
     10 H          62.7866   84.8000   10.7882 H       1  UNL1        0.1497
     11 C          64.2124   83.4981    9.8040 C.3     1  UNL1        0.0897
     12 C          64.3245   82.4085   10.8287 C.3     1  UNL1        0.0226
     13 C          63.7277   82.5966   12.1920 C.3     1  UNL1        0.0175
     14 C          62.5699   81.7481   12.6274 C.3     1  UNL1        0.0029
     15 C          61.9731   81.9362   13.9907 C.3     1  UNL1        0.0171
     16 C          62.5341   82.9728   14.9185 C.3     1  UNL1        0.0686
     17 N          63.6919   83.8212   14.4830 N.3     1  UNL1       -0.2975
     18 C          64.2887   83.6331   13.1198 C.3     1  UNL1        0.0686
     19 H          64.4415   83.6646   15.1568 H       1  UNL1        0.1232
     20 C          60.3317   89.1462   11.0659 C.3     1  UNL1        0.1166
     21 C          62.6810   90.0181   11.7516 C.2     1  UNL1        0.2462
     22 O          62.9673   88.7121   12.4314 O.2     1  UNL1       -0.2701
     23 N          61.3632   90.2352   11.0688 N.am    1  UNL1       -0.2969
     24 H          61.1754   91.0924   10.6226 H       1  UNL1        0.1501
     25 C          65.7758   93.2850   11.7602 C.ar    1  UNL1        0.1724
     26 C          65.1016   92.8939   10.4786 C.ar    1  UNL1        0.0402
     27 C          64.0700   91.8050   10.4757 C.ar    1  UNL1        0.0078
     28 C          63.7126   91.1071   11.7545 C.ar    1  UNL1        0.0566
     29 C          64.3868   91.4981   13.0360 C.ar    1  UNL1        0.0446
     30 C          65.4184   92.5871   13.0389 C.ar    1  UNL1        0.1725
     31 C          66.9413   95.2833   10.5778 C.3     1  UNL1        0.2526
     32 O          66.8074   94.3739   11.7631 O.3     1  UNL1       -0.4684
     33 O          66.0926   92.9781   14.3206 O.3     1  UNL1       -0.4684
     34 C          67.5180   92.5828   14.5692 C.3     1  UNL1        0.2526
@<TRIPOS>BOND
     1    31    32    1
     2    32    25    1
     3    25    26   ar
     4    26    27   ar
     5    27    28   ar
     6    28    21    1
     7    21    22    2
     8    21    23   am
     9    23    20    1
    10    20     1    1
    11     1     2   ar
    12     2     3   ar
    13     3     4   ar
    14     4     5   ar
    15     5     7    1
    16     7     8    2
    17     7     9   am
    18     9    11    1
    19    11    12    1
    20    12    13    1
    21    13    14    1
    22    14    15    1
    23    15    16    1
    24    16    17    1
    25    17    18    1
    26     5     6   ar
    27    28    29   ar
    28    29    30   ar
    29    30    33    1
    30    33    34    1
    31    30    25   ar
    32     6     1   ar
    33    18    13    1
    34    23    24    1
    35     9    10    1
    36    17    19    1
@<TRIPOS>MOLECULE
*****
 34 36 0 0 0
SMALL
GASTEIGER

@<TRIPOS>ATOM
      1 C          63.7375   90.9428   12.2981 C.ar    1  UNL1       -0.0024
      2 C          64.8003   91.9250   12.6926 C.ar    1  UNL1       -0.0026
      3 C          65.5673   91.7287   13.9668 C.ar    1  UNL1       -0.0001
      4 C          65.2713   90.5503   14.8463 C.ar    1  UNL1        0.0045
      5 C          64.2085   89.5680   14.4518 C.ar    1  UNL1        0.0531
      6 C          63.4416   89.7643   13.1777 C.ar    1  UNL1        0.0019
      7 C          63.9126   88.3895   15.3313 C.2     1  UNL1        0.2458
      8 O          63.1917   88.5866   16.6319 O.2     1  UNL1       -0.2701
      9 N          64.3376   87.0140   14.9103 N.am    1  UNL1       -0.3009
     10 H          64.8107   86.8846   14.0567 H       1  UNL1        0.1497
     11 C          64.0417   85.8355   15.7898 C.3     1  UNL1        0.0897
     12 C          62.9259   84.8973   15.4365 C.3     1  UNL1        0.0226
     13 C          63.1778   83.7496   14.5042 C.3     1  UNL1        0.0175
     14 C          62.2572   82.5654   14.5066 C.3     1  UNL1        0.0029
     15 C          62.5091   81.4177   13.5742 C.3     1  UNL1        0.0171
     16 C          63.6816   81.4542   12.6395 C.3     1  UNL1        0.0686
     17 N          64.6023   82.6384   12.6371 N.3     1  UNL1       -0.2975
     18 C          64.3503   83.7861   13.5695 C.3     1  UNL1        0.0686
     19 H          64.5895   83.0194   11.6910 H       1  UNL1        0.1232
     20 C          62.9706   91.1390   11.0240 C.3     1  UNL1        0.1166
     21 C          61.5000   89.1453   10.2413 C.2     1  UNL1        0.2462
     22 O          60.4922   89.4718   11.3032 O.2     1  UNL1       -0.2701
     23 N          62.7392   89.9789   10.1016 N.am    1  UNL1       -0.2969
     24 H          63.4007   89.7646    9.4047 H       1  UNL1        0.1501
     25 C          60.8058   85.6651    7.4743 C.ar    1  UNL1        0.1724
     26 C          59.7841   86.7586    7.5750 C.ar    1  UNL1        0.0402
     27 C          60.0155   87.9187    8.4973 C.ar    1  UNL1        0.0078
     28 C          61.2686   87.9852    9.3189 C.ar    1  UNL1        0.0566
     29 C          62.2903   86.8917    9.2183 C.ar    1  UNL1        0.0446
     30 C          62.0589   85.7316    8.2960 C.ar    1  UNL1        0.1725
     31 C          61.5924   84.1654    5.5040 C.3     1  UNL1        0.2526
     32 O          60.5744   84.5050    6.5520 O.3     1  UNL1       -0.4684
     33 O          63.0808   84.6380    8.1953 O.3     1  UNL1       -0.4684
     34 C          63.5885   83.9693    9.4383 C.3     1  UNL1        0.2526
@<TRIPOS>BOND
     1    31    32    1
     2    32    25    1
     3    25    26   ar
     4    26    27   ar
     5    27    28   ar
     6    28    21    1
     7    21    22    2
     8    21    23   am
     9    23    20    1
    10    20     1    1
    11     1     2   ar
    12     2     3   ar
    13     3     4   ar
    14     4     5   ar
    15     5     7    1
    16     7     8    2
    17     7     9   am
    18     9    11    1
    19    11    12    1
    20    12    13    1
    21    13    14    1
    22    14    15    1
    23    15    16    1
    24    16    17    1
    25    17    18    1
    26     5     6   ar
    27    28    29   ar
    28    29    30   ar
    29    30    33    1
    30    33    34    1
    31    30    25   ar
    32     6     1   ar
    33    18    13    1
    34    23    24    1
    35     9    10    1
    36    17    19    1
@<TRIPOS>MOLECULE
*****
 34 36 0 0 0
SMALL
GASTEIGER

@<TRIPOS>ATOM
      1 C          64.2980   88.4966   14.1882 C.ar    1  UNL1       -0.0024
      2 C          64.9140   89.7530   14.7285 C.ar    1  UNL1       -0.0026
      3 C          64.6900   91.0599   14.0271 C.ar    1  UNL1       -0.0001
      4 C          63.8500   91.1103   12.7854 C.ar    1  UNL1        0.0045
      5 C          63.2340   89.8538   12.2451 C.ar    1  UNL1        0.0531
      6 C          63.4580   88.5470   12.9465 C.ar    1  UNL1        0.0019
      7 C          62.3941   89.9042   11.0033 C.2     1  UNL1        0.2458
      8 O          62.7894   90.7991    9.8663 O.2     1  UNL1       -0.2701
      9 N          61.1587   89.0598   10.8987 N.am    1  UNL1       -0.3009
     10 H          60.8992   88.4725   11.6450 H       1  UNL1        0.1497
     11 C          60.3187   89.1102    9.6570 C.3     1  UNL1        0.0897
     12 C          59.7227   87.8502    9.1030 C.3     1  UNL1        0.0226
     13 C          60.6092   86.8090    8.4866 C.3     1  UNL1        0.0175
     14 C          62.0063   86.6159    8.9971 C.3     1  UNL1        0.0029
     15 C          62.8929   85.5747    8.3807 C.3     1  UNL1        0.0171
     16 C          62.3823   84.7266    7.2538 C.3     1  UNL1        0.0686
     17 N          60.9851   84.9197    6.7433 N.3     1  UNL1       -0.2975
     18 C          60.0986   85.9609    7.3597 C.3     1  UNL1        0.0686
     19 H          60.5066   84.0252    6.8495 H       1  UNL1        0.1232
     20 C          64.5220   87.1897   14.8896 C.3     1  UNL1        0.1166
     21 C          63.3120   84.9219   14.5114 C.2     1  UNL1        0.2462
     22 O          62.3765   85.2325   15.6421 O.2     1  UNL1       -0.2701
     23 N          64.3847   85.9004   14.1352 N.am    1  UNL1       -0.2969
     24 H          64.9987   85.6966   13.3931 H       1  UNL1        0.1501
     25 C          62.9001   81.0543   12.2482 C.ar    1  UNL1        0.1724
     26 C          63.7873   82.1420   11.7193 C.ar    1  UNL1        0.0402
     27 C          63.9246   83.4312   12.4737 C.ar    1  UNL1        0.0078
     28 C          63.1747   83.6327   13.7570 C.ar    1  UNL1        0.0566
     29 C          62.2875   82.5450   14.2860 C.ar    1  UNL1        0.0446
     30 C          62.1502   81.2558   13.5316 C.ar    1  UNL1        0.1725
     31 C          62.8796   79.7551    9.9985 C.3     1  UNL1        0.2526
     32 O          62.7628   79.7651   11.4939 O.3     1  UNL1       -0.4684
     33 O          61.2629   80.1681   14.0606 O.3     1  UNL1       -0.4684
     34 C          59.7844   80.3944   14.1728 C.3     1  UNL1        0.2526
@<TRIPOS>BOND
     1    31    32    1
     2    32    25    1
     3    25    26   ar
     4    26    27   ar
     5    27    28   ar
     6    28    21    1
     7    21    22    2
     8    21    23   am
     9    23    20    1
    10    20     1    1
    11     1     2   ar
    12     2     3   ar
    13     3     4   ar
    14     4     5   ar
    15     5     7    1
    16     7     8    2
    17     7     9   am
    18     9    11    1
    19    11    12    1
    20    12    13    1
    21    13    14    1
    22    14    15    1
    23    15    16    1
    24    16    17    1
    25    17    18    1
    26     5     6   ar
    27    28    29   ar
    28    29    30   ar
    29    30    33    1
    30    33    34    1
    31    30    25   ar
    32     6     1   ar
    33    18    13    1
    34    23    24    1
    35     9    10    1
    36    17    19    1
@<TRIPOS>MOLECULE
*****
 34 36 0 0 0
SMALL
GASTEIGER

@<TRIPOS>ATOM
      1 C          64.4761   89.3971   14.2662 C.ar    1  UNL1       -0.0024
      2 C          65.3212   90.5798   14.6363 C.ar    1  UNL1       -0.0026
      3 C          65.2990   91.8137   13.7835 C.ar    1  UNL1       -0.0001
      4 C          64.4318   91.8647   12.5606 C.ar    1  UNL1        0.0045
      5 C          63.5868   90.6819   12.1906 C.ar    1  UNL1        0.0531
      6 C          63.6089   89.4481   13.0434 C.ar    1  UNL1        0.0019
      7 C          62.7196   90.7329   10.9677 C.2     1  UNL1        0.2458
      8 O          63.0962   91.6191    9.8176 O.2     1  UNL1       -0.2701
      9 N          61.4757   89.8977   10.8950 N.am    1  UNL1       -0.3009
     10 H          61.2285   89.3160   11.6499 H       1  UNL1        0.1497
     11 C          60.6085   89.9487    9.6722 C.3     1  UNL1        0.0897
     12 C          59.7762   88.7599    9.2928 C.3     1  UNL1        0.0226
     13 C          60.4311   87.5378    8.7204 C.3     1  UNL1        0.0175
     14 C          61.8114   87.1504    9.1614 C.3     1  UNL1        0.0029
     15 C          62.4663   85.9282    8.5890 C.3     1  UNL1        0.0171
     16 C          61.7408   85.0935    7.5757 C.3     1  UNL1        0.0686
     17 N          60.3604   85.4809    7.1347 N.3     1  UNL1       -0.2975
     18 C          59.7056   86.7031    7.7071 C.3     1  UNL1        0.0686
     19 H          59.7505   84.6921    7.3495 H       1  UNL1        0.1232
     20 C          64.4983   88.1632   15.1190 C.3     1  UNL1        0.1166
     21 C          63.5329   85.7517   15.1687 C.2     1  UNL1        0.2462
     22 O          62.8720   86.0434   16.4832 O.2     1  UNL1       -0.2701
     23 N          64.3461   86.8116   14.4866 N.am    1  UNL1       -0.2969
     24 H          64.7799   86.6202   13.6238 H       1  UNL1        0.1501
     25 C          63.0763   81.6969   13.2714 C.ar    1  UNL1        0.1724
     26 C          62.3395   82.0198   14.5374 C.ar    1  UNL1        0.0402
     27 C          62.4917   83.3714   15.1698 C.ar    1  UNL1        0.0078
     28 C          63.3807   84.4001   14.5363 C.ar    1  UNL1        0.0566
     29 C          64.1175   84.0771   13.2702 C.ar    1  UNL1        0.0446
     30 C          63.9653   82.7255   12.6378 C.ar    1  UNL1        0.1725
     31 C          62.0823   79.2967   13.3037 C.3     1  UNL1        0.2526
     32 O          62.9241   80.3452   12.6390 O.3     1  UNL1       -0.4684
     33 O          64.7021   82.4026   11.3717 O.3     1  UNL1       -0.4684
     34 C          64.2348   82.9732   10.0656 C.3     1  UNL1        0.2526
@<TRIPOS>BOND
     1    31    32    1
     2    32    25    1
     3    25    26   ar
     4    26    27   ar
     5    27    28   ar
     6    28    21    1
     7    21    22    2
     8    21    23   am
     9    23    20    1
    10    20     1    1
    11     1     2   ar
    12     2     3   ar
    13     3     4   ar
    14     4     5   ar
    15     5     7    1
    16     7     8    2
    17     7     9   am
    18     9    11    1
    19    11    12    1
    20    12    13    1
    21    13    14    1
    22    14    15    1
    23    15    16    1
    24    16    17    1
    25    17    18    1
    26     5     6   ar
    27    28    29   ar
    28    29    30   ar
    29    30    33    1
    30    33    34    1
    31    30    25   ar
    32     6     1   ar
    33    18    13    1
    34    23    24    1
    35     9    10    1
    36    17    19    1
@<TRIPOS>MOLECULE
*****
 34 36 0 0 0
SMALL
GASTEIGER

@<TRIPOS>ATOM
      1 C          63.6382   82.7795   11.0252 C.ar    1  UNL1       -0.0024
      2 C          63.1870   81.3533   10.9149 C.ar    1  UNL1       -0.0026
      3 C          62.7551   80.6062   12.1419 C.ar    1  UNL1       -0.0001
      4 C          62.7745   81.2855   13.4792 C.ar    1  UNL1        0.0045
      5 C          63.2257   82.7118   13.5895 C.ar    1  UNL1        0.0531
      6 C          63.6575   83.4588   12.3625 C.ar    1  UNL1        0.0019
      7 C          63.2451   83.3910   14.9267 C.2     1  UNL1        0.2458
      8 O          64.1975   82.9285   15.9892 O.2     1  UNL1       -0.2701
      9 N          62.3120   84.5329   15.2015 N.am    1  UNL1       -0.3009
     10 H          61.6868   84.8365   14.5042 H       1  UNL1        0.1497
     11 C          62.3313   85.2122   16.5387 C.3     1  UNL1        0.0897
     12 C          63.4518   86.1456   16.8897 C.3     1  UNL1        0.0226
     13 C          63.5476   87.4863   16.2238 C.3     1  UNL1        0.0175
     14 C          64.1762   87.6067   14.8673 C.3     1  UNL1        0.0029
     15 C          64.2720   88.9474   14.2014 C.3     1  UNL1        0.0171
     16 C          63.7391   90.1676   14.8920 C.3     1  UNL1        0.0686
     17 N          63.1104   90.0472   16.2485 N.3     1  UNL1       -0.2975
     18 C          63.0146   88.7065   16.9144 C.3     1  UNL1        0.0686
     19 H          62.1581   90.4028   16.1644 H       1  UNL1        0.1232
     20 C          64.0700   83.5266    9.7982 C.3     1  UNL1        0.1166
     21 C          62.4507   85.5574    9.8578 C.2     1  UNL1        0.2462
     22 O          62.7545   85.7570   11.3130 O.2     1  UNL1       -0.2701
     23 N          63.1084   84.4422    9.1004 N.am    1  UNL1       -0.2969
     24 H          62.9090   84.3112    8.1452 H       1  UNL1        0.1501
     25 C          59.5658   88.3042    7.7643 C.ar    1  UNL1        0.1724
     26 C          59.7702   86.9062    7.2606 C.ar    1  UNL1        0.0402
     27 C          60.7318   85.9906    7.9584 C.ar    1  UNL1        0.0078
     28 C          61.4890   86.4730    9.1600 C.ar    1  UNL1        0.0566
     29 C          61.2847   87.8710    9.6636 C.ar    1  UNL1        0.0446
     30 C          60.3231   88.7866    8.9658 C.ar    1  UNL1        0.1725
     31 C          59.0751   90.0753    5.9279 C.3     1  UNL1        0.2526
     32 O          58.6042   89.2198    7.0664 O.3     1  UNL1       -0.4684
     33 O          60.1188   90.1847    9.4696 O.3     1  UNL1       -0.4684
     34 C          59.9139   90.4315   10.9348 C.3     1  UNL1        0.2526
@<TRIPOS>BOND
     1    31    32    1
     2    32    25    1
     3    25    26   ar
     4    26    27   ar
     5    27    28   ar
     6    28    21    1
     7    21    22    2
     8    21    23   am
     9    23    20    1
    10    20     1    1
    11     1     2   ar
    12     2     3   ar
    13     3     4   ar
    14     4     5   ar
    15     5     7    1
    16     7     8    2
    17     7     9   am
    18     9    11    1
    19    11    12    1
    20    12    13    1
    21    13    14    1
    22    14    15    1
    23    15    16    1
    24    16    17    1
    25    17    18    1
    26     5     6   ar
    27    28    29   ar
    28    29    30   ar
    29    30    33    1
    30    33    34    1
    31    30    25   ar
    32     6     1   ar
    33    18    13    1
    34    23    24    1
    35     9    10    1
    36    17    19    1
@<TRIPOS>MOLECULE
*****
 34 36 0 0 0
SMALL
GASTEIGER

@<TRIPOS>ATOM
      1 C          60.1251   88.1873    9.8562 C.ar    1  UNL1       -0.0024
      2 C          59.2258   88.0880    8.6599 C.ar    1  UNL1       -0.0026
      3 C          59.4240   86.9857    7.6620 C.ar    1  UNL1       -0.0001
      4 C          60.5215   85.9827    7.8606 C.ar    1  UNL1        0.0045
      5 C          61.4208   86.0820    9.0570 C.ar    1  UNL1        0.0531
      6 C          61.2226   87.1843   10.0548 C.ar    1  UNL1        0.0019
      7 C          62.5183   85.0789    9.2556 C.2     1  UNL1        0.2458
      8 O          63.3153   84.5967    8.0800 O.2     1  UNL1       -0.2701
      9 N          62.8188   84.5582   10.6299 N.am    1  UNL1       -0.3009
     10 H          62.2957   84.8748   11.4015 H       1  UNL1        0.1497
     11 C          63.9163   83.5552   10.8285 C.3     1  UNL1        0.0897
     12 C          64.1997   83.0150   12.1988 C.3     1  UNL1        0.0226
     13 C          63.8949   83.8455   13.4102 C.3     1  UNL1        0.0175
     14 C          64.9382   84.7664   13.9700 C.3     1  UNL1        0.0029
     15 C          64.6334   85.5969   15.1814 C.3     1  UNL1        0.0171
     16 C          63.2853   85.5065   15.8329 C.3     1  UNL1        0.0686
     17 N          62.2421   84.5855   15.2731 N.3     1  UNL1       -0.2975
     18 C          62.5469   83.7551   14.0617 C.3     1  UNL1        0.0686
     19 H          61.4347   85.1631   15.0386 H       1  UNL1        0.1232
     20 C          59.9269   89.2896   10.8541 C.3     1  UNL1        0.1166
     21 C          62.2013   90.4096   11.4226 C.2     1  UNL1        0.2462
     22 O          62.3156   90.8952   10.0080 O.2     1  UNL1       -0.2701
     23 N          61.0069   89.6068   11.8456 N.am    1  UNL1       -0.2969
     24 H          60.9318   89.2880   12.7741 H       1  UNL1        0.1501
     25 C          65.4411   91.3610   14.3971 C.ar    1  UNL1        0.1724
     26 C          65.5950   91.7731   12.9631 C.ar    1  UNL1        0.0402
     27 C          64.5150   91.4560   11.9716 C.ar    1  UNL1        0.0078
     28 C          63.2812   90.7267   12.4141 C.ar    1  UNL1        0.0566
     29 C          63.1274   90.3146   13.8481 C.ar    1  UNL1        0.0446
     30 C          64.2074   90.6317   14.8396 C.ar    1  UNL1        0.1725
     31 C          66.5283   93.0032   16.0916 C.3     1  UNL1        0.2526
     32 O          66.5211   91.6782   15.3886 O.3     1  UNL1       -0.4684
     33 O          64.0535   90.2196   16.2737 O.3     1  UNL1       -0.4684
     34 C          63.0721   89.1476   16.6448 C.3     1  UNL1        0.2526
@<TRIPOS>BOND
     1    31    32    1
     2    32    25    1
     3    25    26   ar
     4    26    27   ar
     5    27    28   ar
     6    28    21    1
     7    21    22    2
     8    21    23   am
     9    23    20    1
    10    20     1    1
    11     1     2   ar
    12     2     3   ar
    13     3     4   ar
    14     4     5   ar
    15     5     7    1
    16     7     8    2
    17     7     9   am
    18     9    11    1
    19    11    12    1
    20    12    13    1
    21    13    14    1
    22    14    15    1
    23    15    16    1
    24    16    17    1
    25    17    18    1
    26     5     6   ar
    27    28    29   ar
    28    29    30   ar
    29    30    33    1
    30    33    34    1
    31    30    25   ar
    32     6     1   ar
    33    18    13    1
    34    23    24    1
    35     9    10    1
    36    17    19    1
