@<TRIPOS>MOLECULE
*****
 39 45 0 0 0
SMALL
GASTEIGER

@<TRIPOS>ATOM
      1 C          62.9984   85.1333   13.1532 C.ar    1  UNL1        0.2389
      2 N          62.2365   85.7061   11.9950 N.ar    1  UNL1       -0.1956
      3 C          62.2765   87.1814   11.7270 C.ar    1  UNL1        0.1424
      4 C          63.0783   88.0840   12.6172 C.ar    1  UNL1        0.0785
      5 S          63.3051   89.5666   12.6009 S.2     1  UNL1       -0.0856
      6 C          64.2072   89.9102   13.7490 C.ar    1  UNL1        0.0251
      7 C          64.5379   88.6399   14.4749 C.ar    1  UNL1        0.0233
      8 C          63.8402   87.5112   13.7754 C.ar    1  UNL1        0.0933
      9 N          63.8003   86.0359   14.0434 N.ar    1  UNL1       -0.2105
     10 C          62.8817   83.0089   14.7713 C.ar    1  UNL1        0.1263
     11 N          62.8641   81.5225   14.5706 N.ar    1  UNL1       -0.2305
     12 C          62.9299   81.2529   13.0965 C.ar    1  UNL1        0.0987
     13 C          62.9443   79.9762   12.3093 C.ar    1  UNL1        0.0206
     14 C          63.0169   80.0193   10.8118 C.ar    1  UNL1        0.0016
     15 C          63.0753   81.3391   10.1014 C.ar    1  UNL1        0.0016
     16 C          63.0609   82.6158   10.8885 C.ar    1  UNL1        0.0192
     17 C          62.9882   82.5727   12.3861 C.ar    1  UNL1        0.0854
     18 N          62.9584   83.6580   13.4212 N.ar    1  UNL1       -0.2632
     19 C          61.9881   84.9517   16.2467 C.3     1  UNL1        0.0084
     20 C          62.8315   83.7212   16.0905 C.3     1  UNL1        0.0644
     21 N          61.5146   87.7542   10.5688 N.pl3   1  UNL1       -0.2876
     22 C          60.9361   89.1351   10.6608 C.3     1  UNL1        0.1243
     23 C          60.1742   89.7078    9.5027 C.3     1  UNL1        0.1636
     24 O          59.9907   88.8997    8.2523 O.3     1  UNL1       -0.3501
     25 C          60.5692   87.5188    8.1603 C.3     1  UNL1        0.1636
     26 C          61.3311   86.9461    9.3185 C.3     1  UNL1        0.1243
     27 C          64.6932   91.2830   14.1082 C.3     1  UNL1        0.1057
     28 N          65.1985   92.2039   13.0373 N.3     1  UNL1       -0.2686
     29 C          64.7505   92.0203   11.6176 C.3     1  UNL1        0.0899
     30 C          65.2557   92.9411   10.5467 C.3     1  UNL1        0.0898
     31 N          66.2090   94.0454   10.8955 N.3     1  UNL1       -0.2674
     32 C          66.6571   94.2289   12.3152 C.3     1  UNL1        0.0870
     33 C          66.1519   93.3082   13.3861 C.3     1  UNL1        0.0605
     34 C          65.9538   92.6972   14.7417 C.3     1  UNL1        0.0174
     35 C          67.0364   94.2003   14.2057 C.3     1  UNL1        0.0174
     36 C          66.7143   94.9661    9.8246 C.3     1  UNL1        0.1173
     37 C          67.4361   94.7834    8.5224 C.3     1  UNL1        0.1606
     38 O          67.4290   96.2683    8.3101 O.3     1  UNL1       -0.3507
     39 C          66.7073   96.4510    9.6123 C.3     1  UNL1        0.1606
@<TRIPOS>BOND
     1    19    20    1
     2    20    10    1
     3    10    11   ar
     4    11    12   ar
     5    12    13   ar
     6    13    14   ar
     7    14    15   ar
     8    15    16   ar
     9    16    17   ar
    10    17    18   ar
    11    18     1    1
    12     1     2   ar
    13     2     3   ar
    14     3    21    1
    15    21    22    1
    16    22    23    1
    17    23    24    1
    18    24    25    1
    19    25    26    1
    20     3     4   ar
    21     4     5   ar
    22     5     6   ar
    23     6    27    1
    24    27    28    1
    25    28    29    1
    26    29    30    1
    27    30    31    1
    28    31    36    1
    29    36    37    1
    30    37    38    1
    31    38    39    1
    32    31    32    1
    33    32    33    1
    34    33    34    1
    35    33    35    1
    36     6     7   ar
    37     7     8   ar
    38     8     9   ar
    39    18    10   ar
    40     9     1   ar
    41    17    12   ar
    42    26    21    1
    43     8     4   ar
    44    33    28    1
    45    39    36    1
@<TRIPOS>MOLECULE
*****
 39 45 0 0 0
SMALL
GASTEIGER

@<TRIPOS>ATOM
      1 C          62.4667   85.1515   12.4877 C.ar    1  UNL1        0.2389
      2 N          61.6570   85.3928   11.2484 N.ar    1  UNL1       -0.1956
      3 C          61.5803   86.7699   10.6588 C.ar    1  UNL1        0.1424
      4 C          62.3133   87.9059   11.3086 C.ar    1  UNL1        0.0785
      5 S          62.4235   89.3603   10.9588 S.2     1  UNL1       -0.0856
      6 C          63.3013   90.0180   11.9819 C.ar    1  UNL1        0.0251
      7 C          63.7336   88.9700   12.9641 C.ar    1  UNL1        0.0233
      8 C          63.1230   87.6646   12.5480 C.ar    1  UNL1        0.0933
      9 N          63.1998   86.2875   13.1376 N.ar    1  UNL1       -0.2105
     10 C          62.4798   83.4354   14.5371 C.ar    1  UNL1        0.1263
     11 N          62.5943   81.9460   14.6725 N.ar    1  UNL1       -0.2305
     12 C          62.7286   81.3643   13.2964 C.ar    1  UNL1        0.0987
     13 C          62.8755   79.9517   12.8138 C.ar    1  UNL1        0.0206
     14 C          62.9910   79.6692   11.3452 C.ar    1  UNL1        0.0016
     15 C          62.9595   80.7992   10.3592 C.ar    1  UNL1        0.0016
     16 C          62.8126   82.2118   10.8419 C.ar    1  UNL1        0.0192
     17 C          62.6972   82.4943   12.3105 C.ar    1  UNL1        0.0854
     18 N          62.5434   83.7743   13.0773 N.ar    1  UNL1       -0.2632
     19 C          63.5283   85.1457   16.1880 C.3     1  UNL1        0.0084
     20 C          62.3284   84.4141   15.6637 C.3     1  UNL1        0.0644
     21 N          60.7705   87.0111    9.4194 N.pl3   1  UNL1       -0.2876
     22 C          60.1533   88.3565    9.1768 C.3     1  UNL1        0.1243
     23 C          59.3435   88.5977    7.9374 C.3     1  UNL1        0.1636
     24 O          59.1510   87.4935    6.9406 O.3     1  UNL1       -0.3501
     25 C          59.7682   86.1481    7.1832 C.3     1  UNL1        0.1636
     26 C          60.5780   85.9069    8.4226 C.3     1  UNL1        0.1243
     27 C          63.6802   91.4688   12.0168 C.3     1  UNL1        0.1057
     28 N          64.8320   91.9231   12.8637 N.3     1  UNL1       -0.2686
     29 C          64.8702   91.5807   14.3236 C.3     1  UNL1        0.0899
     30 C          66.0218   92.0348   15.1706 C.3     1  UNL1        0.0898
     31 N          67.1353   92.8314   14.5577 N.3     1  UNL1       -0.2674
     32 C          67.0971   93.1738   13.0978 C.3     1  UNL1        0.0870
     33 C          65.9454   92.7197   12.2508 C.3     1  UNL1        0.0605
     34 C          65.0755   92.5178   11.0456 C.3     1  UNL1        0.0174
     35 C          66.7567   93.4462   11.2193 C.3     1  UNL1        0.0174
     36 C          68.2869   93.2856   15.4046 C.3     1  UNL1        0.1173
     37 C          68.8257   94.6173   15.8364 C.3     1  UNL1        0.1606
     38 O          69.9157   93.9281   16.6023 O.3     1  UNL1       -0.3507
     39 C          69.3770   92.5964   16.1705 C.3     1  UNL1        0.1606
@<TRIPOS>BOND
     1    19    20    1
     2    20    10    1
     3    10    11   ar
     4    11    12   ar
     5    12    13   ar
     6    13    14   ar
     7    14    15   ar
     8    15    16   ar
     9    16    17   ar
    10    17    18   ar
    11    18     1    1
    12     1     2   ar
    13     2     3   ar
    14     3    21    1
    15    21    22    1
    16    22    23    1
    17    23    24    1
    18    24    25    1
    19    25    26    1
    20     3     4   ar
    21     4     5   ar
    22     5     6   ar
    23     6    27    1
    24    27    28    1
    25    28    29    1
    26    29    30    1
    27    30    31    1
    28    31    36    1
    29    36    37    1
    30    37    38    1
    31    38    39    1
    32    31    32    1
    33    32    33    1
    34    33    34    1
    35    33    35    1
    36     6     7   ar
    37     7     8   ar
    38     8     9   ar
    39    18    10   ar
    40     9     1   ar
    41    17    12   ar
    42    26    21    1
    43     8     4   ar
    44    33    28    1
    45    39    36    1
@<TRIPOS>MOLECULE
*****
 39 45 0 0 0
SMALL
GASTEIGER

@<TRIPOS>ATOM
      1 C          62.9133   84.8440   11.7787 C.ar    1  UNL1        0.2389
      2 N          62.0499   85.6046   10.8165 N.ar    1  UNL1       -0.1956
      3 C          61.9651   87.0996   10.9049 C.ar    1  UNL1        0.1424
      4 C          62.7438   87.8341   11.9557 C.ar    1  UNL1        0.0785
      5 S          62.8581   89.2932   12.2839 S.2     1  UNL1       -0.0856
      6 C          63.7921   89.4346   13.4490 C.ar    1  UNL1        0.0251
      7 C          64.2551   88.0627   13.8409 C.ar    1  UNL1        0.0233
      8 C          63.6073   87.0736   12.9180 C.ar    1  UNL1        0.0933
      9 N          63.6920   85.5786   12.8296 N.ar    1  UNL1       -0.2105
     10 C          63.6332   82.5661   10.5796 C.ar    1  UNL1        0.1263
     11 N          63.4902   81.1077   10.8999 N.ar    1  UNL1       -0.2305
     12 C          62.7666   80.9893   12.2085 C.ar    1  UNL1        0.0987
     13 C          62.3454   79.7991   13.0183 C.ar    1  UNL1        0.0206
     14 C          61.6200   79.9941   14.3167 C.ar    1  UNL1        0.0016
     15 C          61.3158   81.3793   14.8051 C.ar    1  UNL1        0.0016
     16 C          61.7370   82.5695   13.9953 C.ar    1  UNL1        0.0192
     17 C          62.4624   82.3745   12.6969 C.ar    1  UNL1        0.0854
     18 N          62.9980   83.3490   11.6902 N.ar    1  UNL1       -0.2632
     19 C          63.5885   84.1810    8.5448 C.3     1  UNL1        0.0084
     20 C          64.2952   83.1407    9.3624 C.3     1  UNL1        0.0644
     21 N          61.1017   87.8601    9.9426 N.pl3   1  UNL1       -0.2876
     22 C          60.9827   89.3508   10.0583 C.3     1  UNL1        0.1243
     23 C          60.1193   90.1114    9.0960 C.3     1  UNL1        0.1636
     24 O          59.3747   89.3811    8.0179 O.3     1  UNL1       -0.3501
     25 C          59.4937   87.8903    7.9022 C.3     1  UNL1        0.1636
     26 C          60.3571   87.1298    8.8645 C.3     1  UNL1        0.1243
     27 C          64.1928   90.7217   14.1068 C.3     1  UNL1        0.1057
     28 N          64.7969   91.8252   13.2898 N.3     1  UNL1       -0.2686
     29 C          64.3685   92.0253   11.8663 C.3     1  UNL1        0.0899
     30 C          64.9725   93.1287   11.0493 C.3     1  UNL1        0.0898
     31 N          66.0051   94.0320   11.6558 N.3     1  UNL1       -0.2674
     32 C          66.4335   93.8319   13.0793 C.3     1  UNL1        0.0870
     33 C          65.8295   92.7285   13.8963 C.3     1  UNL1        0.0605
     34 C          65.5503   91.8304   15.0649 C.3     1  UNL1        0.0174
     35 C          66.7651   93.3199   14.9087 C.3     1  UNL1        0.0174
     36 C          66.6092   95.1355   10.8389 C.3     1  UNL1        0.1173
     37 C          67.5195   95.1974    9.6483 C.3     1  UNL1        0.1606
     38 O          67.4636   96.6959    9.6834 O.3     1  UNL1       -0.3507
     39 C          66.5533   96.6340   10.8740 C.3     1  UNL1        0.1606
@<TRIPOS>BOND
     1    19    20    1
     2    20    10    1
     3    10    11   ar
     4    11    12   ar
     5    12    13   ar
     6    13    14   ar
     7    14    15   ar
     8    15    16   ar
     9    16    17   ar
    10    17    18   ar
    11    18     1    1
    12     1     2   ar
    13     2     3   ar
    14     3    21    1
    15    21    22    1
    16    22    23    1
    17    23    24    1
    18    24    25    1
    19    25    26    1
    20     3     4   ar
    21     4     5   ar
    22     5     6   ar
    23     6    27    1
    24    27    28    1
    25    28    29    1
    26    29    30    1
    27    30    31    1
    28    31    36    1
    29    36    37    1
    30    37    38    1
    31    38    39    1
    32    31    32    1
    33    32    33    1
    34    33    34    1
    35    33    35    1
    36     6     7   ar
    37     7     8   ar
    38     8     9   ar
    39    18    10   ar
    40     9     1   ar
    41    17    12   ar
    42    26    21    1
    43     8     4   ar
    44    33    28    1
    45    39    36    1
@<TRIPOS>MOLECULE
*****
 39 45 0 0 0
SMALL
GASTEIGER

@<TRIPOS>ATOM
      1 C          63.0254   89.7714   12.2951 C.ar    1  UNL1        0.2389
      2 N          63.1807   88.2858   12.1588 N.ar    1  UNL1       -0.1956
      3 C          62.4672   87.5548   11.0603 C.ar    1  UNL1        0.1424
      4 C          61.5985   88.3094   10.0981 C.ar    1  UNL1        0.0785
      5 S          60.7778   87.8634    8.9245 S.2     1  UNL1       -0.0856
      6 C          60.1153   89.0733    8.3355 C.ar    1  UNL1        0.0251
      7 C          60.5266   90.2672    9.1450 C.ar    1  UNL1        0.0233
      8 C          61.4433   89.7951   10.2344 C.ar    1  UNL1        0.0933
      9 N          62.1567   90.5261   11.3329 N.ar    1  UNL1       -0.2105
     10 C          63.5966   90.2412   14.8638 C.ar    1  UNL1        0.1263
     11 N          64.4896   91.2004   15.5935 N.ar    1  UNL1       -0.2305
     12 C          65.1838   92.0544   14.5743 C.ar    1  UNL1        0.0987
     13 C          66.1784   93.1691   14.7087 C.ar    1  UNL1        0.0206
     14 C          66.7091   93.8524   13.4834 C.ar    1  UNL1        0.0016
     15 C          66.2451   93.4211   12.1237 C.ar    1  UNL1        0.0016
     16 C          65.2504   92.3064   11.9894 C.ar    1  UNL1        0.0192
     17 C          64.7198   91.6230   13.2147 C.ar    1  UNL1        0.0854
     18 N          63.7388   90.5024   13.3936 N.ar    1  UNL1       -0.2632
     19 C          63.0553   88.6527   16.8472 C.3     1  UNL1        0.0084
     20 C          62.7159   89.2031   15.4937 C.3     1  UNL1        0.0644
     21 N          62.6225   86.0691   10.9240 N.pl3   1  UNL1       -0.2876
     22 C          62.9679   85.4700    9.5929 C.3     1  UNL1        0.1243
     23 C          63.1232   83.9843    9.4566 C.3     1  UNL1        0.1636
     24 O          62.9331   83.0976   10.6515 O.3     1  UNL1       -0.3501
     25 C          62.5877   83.6967   11.9825 C.3     1  UNL1        0.1636
     26 C          62.4324   85.1823   12.1188 C.3     1  UNL1        0.1243
     27 C          59.2019   89.0871    7.1458 C.3     1  UNL1        0.1057
     28 N          59.4070   90.0954    6.0543 N.3     1  UNL1       -0.2686
     29 C          60.7947   90.4294    5.5931 C.3     1  UNL1        0.0899
     30 C          60.9999   91.4377    4.5016 C.3     1  UNL1        0.0898
     31 N          59.8174   92.1119    3.8714 N.3     1  UNL1       -0.2674
     32 C          58.4297   91.7779    4.3327 C.3     1  UNL1        0.0870
     33 C          58.2245   90.7696    5.4241 C.3     1  UNL1        0.0605
     34 C          57.5242   89.8893    6.4164 C.3     1  UNL1        0.0174
     35 C          56.7988   91.1381    5.1385 C.3     1  UNL1        0.0174
     36 C          60.0226   93.1202    2.7800 C.3     1  UNL1        0.1173
     37 C          59.8503   93.1202    1.2899 C.3     1  UNL1        0.1606
     38 O          60.3126   94.5461    1.2363 O.3     1  UNL1       -0.3507
     39 C          60.4849   94.5462    2.7264 C.3     1  UNL1        0.1606
@<TRIPOS>BOND
     1    19    20    1
     2    20    10    1
     3    10    11   ar
     4    11    12   ar
     5    12    13   ar
     6    13    14   ar
     7    14    15   ar
     8    15    16   ar
     9    16    17   ar
    10    17    18   ar
    11    18     1    1
    12     1     2   ar
    13     2     3   ar
    14     3    21    1
    15    21    22    1
    16    22    23    1
    17    23    24    1
    18    24    25    1
    19    25    26    1
    20     3     4   ar
    21     4     5   ar
    22     5     6   ar
    23     6    27    1
    24    27    28    1
    25    28    29    1
    26    29    30    1
    27    30    31    1
    28    31    36    1
    29    36    37    1
    30    37    38    1
    31    38    39    1
    32    31    32    1
    33    32    33    1
    34    33    34    1
    35    33    35    1
    36     6     7   ar
    37     7     8   ar
    38     8     9   ar
    39    18    10   ar
    40     9     1   ar
    41    17    12   ar
    42    26    21    1
    43     8     4   ar
    44    33    28    1
    45    39    36    1
@<TRIPOS>MOLECULE
*****
 39 45 0 0 0
SMALL
GASTEIGER

@<TRIPOS>ATOM
      1 C          64.6847   90.6308   13.2456 C.ar    1  UNL1        0.2389
      2 N          63.6991   90.3447   12.1517 N.ar    1  UNL1       -0.1956
      3 C          63.0895   88.9796   12.0295 C.ar    1  UNL1        0.1424
      4 C          63.4655   87.9006   13.0013 C.ar    1  UNL1        0.0785
      5 S          63.0328   86.4702   13.1298 S.2     1  UNL1       -0.0856
      6 C          63.7509   85.8722   14.3030 C.ar    1  UNL1        0.0251
      7 C          64.6275   86.9330   14.8997 C.ar    1  UNL1        0.0233
      8 C          64.4512   88.1867   14.0952 C.ar    1  UNL1        0.0933
      9 N          65.0608   89.5518   14.2174 N.ar    1  UNL1       -0.2105
     10 C          65.7151   92.6626   14.6439 C.ar    1  UNL1        0.1263
     11 N          66.2710   94.0127   14.3001 N.ar    1  UNL1       -0.2305
     12 C          66.1937   94.1804   12.8115 C.ar    1  UNL1        0.0987
     13 C          66.5949   95.3071   11.9062 C.ar    1  UNL1        0.0206
     14 C          66.3926   95.1874   10.4248 C.ar    1  UNL1        0.0016
     15 C          65.7889   93.9409    9.8486 C.ar    1  UNL1        0.0016
     16 C          65.3876   92.8142   10.7539 C.ar    1  UNL1        0.0192
     17 C          65.5900   92.9340   12.2353 C.ar    1  UNL1        0.0854
     18 N          65.2943   91.9959   13.3678 N.ar    1  UNL1       -0.2632
     19 C          64.2708   92.0535   16.7158 C.3     1  UNL1        0.0084
     20 C          65.6003   92.0812   16.0219 C.3     1  UNL1        0.0644
     21 N          62.1039   88.6935   10.9356 N.pl3   1  UNL1       -0.2876
     22 C          62.1791   87.4016   10.1773 C.3     1  UNL1        0.1243
     23 C          61.1935   87.1155    9.0833 C.3     1  UNL1        0.1636
     24 O          60.1326   88.1214    8.7477 O.3     1  UNL1       -0.3501
     25 C          60.0574   89.4134    9.5061 C.3     1  UNL1        0.1636
     26 C          61.0430   89.6995   10.6000 C.3     1  UNL1        0.1243
     27 C          63.6161   84.4611   14.7936 C.3     1  UNL1        0.1057
     28 N          63.4575   83.3378   13.8122 N.3     1  UNL1       -0.2686
     29 C          64.3834   83.2326   12.6367 C.3     1  UNL1        0.0899
     30 C          64.2249   82.1094   11.6553 C.3     1  UNL1        0.0898
     31 N          63.1406   81.0913   11.8493 N.3     1  UNL1       -0.2674
     32 C          62.2146   81.1965   13.0248 C.3     1  UNL1        0.0870
     33 C          62.3731   82.3197   14.0062 C.3     1  UNL1        0.0605
     34 C          62.1251   83.1950   15.1989 C.3     1  UNL1        0.0174
     35 C          61.2026   81.6057   14.6145 C.3     1  UNL1        0.0174
     36 C          62.9820   79.9681   10.8680 C.3     1  UNL1        0.1173
     37 C          62.7375   78.4920   10.9758 C.3     1  UNL1        0.1606
     38 O          62.7577   78.3794    9.4802 O.3     1  UNL1       -0.3507
     39 C          63.0022   79.8554    9.3724 C.3     1  UNL1        0.1606
@<TRIPOS>BOND
     1    19    20    1
     2    20    10    1
     3    10    11   ar
     4    11    12   ar
     5    12    13   ar
     6    13    14   ar
     7    14    15   ar
     8    15    16   ar
     9    16    17   ar
    10    17    18   ar
    11    18     1    1
    12     1     2   ar
    13     2     3   ar
    14     3    21    1
    15    21    22    1
    16    22    23    1
    17    23    24    1
    18    24    25    1
    19    25    26    1
    20     3     4   ar
    21     4     5   ar
    22     5     6   ar
    23     6    27    1
    24    27    28    1
    25    28    29    1
    26    29    30    1
    27    30    31    1
    28    31    36    1
    29    36    37    1
    30    37    38    1
    31    38    39    1
    32    31    32    1
    33    32    33    1
    34    33    34    1
    35    33    35    1
    36     6     7   ar
    37     7     8   ar
    38     8     9   ar
    39    18    10   ar
    40     9     1   ar
    41    17    12   ar
    42    26    21    1
    43     8     4   ar
    44    33    28    1
    45    39    36    1
