@<TRIPOS>MOLECULE
*****
 25 27 0 0 0
SMALL
GASTEIGER

@<TRIPOS>ATOM
      1 O          62.3763   89.6697   14.8881 O.2     1  UNL1       -0.2726
      2 C          63.4216   90.3286   14.0377 C.2     1  UNL1        0.2511
      3 N          63.3001   90.2995   12.5430 N.am    1  UNL1       -0.2823
      4 H          63.9862   90.7319   11.9848 H       1  UNL1        0.1549
      5 C          62.1332   89.6115   11.8985 C.ar    1  UNL1        0.0503
      6 C          60.7346   89.9590   12.3144 C.ar    1  UNL1        0.0147
      7 C          59.5678   89.2711   11.6700 C.ar    1  UNL1        0.0013
      8 C          59.7997   88.2357   10.6097 C.ar    1  UNL1        0.0001
      9 C          61.1983   87.8883   10.1938 C.ar    1  UNL1        0.0012
     10 C          62.3651   88.5762   10.8382 C.ar    1  UNL1        0.0147
     11 C          61.4302   86.8529    9.1335 C.ar    1  UNL1        0.0000
     12 C          60.3273   86.4931    8.1827 C.ar    1  UNL1        0.0000
     13 C          60.5591   85.4577    7.1224 C.ar    1  UNL1        0.0000
     14 C          61.8939   84.7822    7.0128 C.ar    1  UNL1        0.0000
     15 C          62.9968   85.1420    7.9636 C.ar    1  UNL1        0.0000
     16 C          62.7649   86.1774    9.0240 C.ar    1  UNL1        0.0000
     17 C          64.5885   91.0165   14.6822 C.3     1  UNL1        0.2141
     18 N          65.5683   91.7786   13.8401 N.ar    1  UNL1       -0.2155
     19 C          67.0591   91.7808   14.0063 C.ar    1  UNL1        0.2037
     20 N          67.6416   92.6759   12.9530 N.ar    1  UNL1       -0.1391
     21 C          66.5108   93.2269   12.1358 C.ar    1  UNL1        0.4880
     22 N          65.2295   92.6724   12.6841 N.ar    1  UNL1       -0.0790
     23 N          66.6389   94.1674   10.9743 N.pl3   1  UNL1        0.1230
     24 O          65.6118   95.2395   10.7605 O.2     1  UNL1        0.0448
     25 O          67.7941   94.0357   10.0265 O.co2   1  UNL1       -0.5734
@<TRIPOS>UNITY_ATOM_ATTR
23 1
charge 1
25 1
charge -1
@<TRIPOS>BOND
     1     1     2    2
     2     2    17    1
     3    17    18    1
     4    18    19   ar
     5    19    20   ar
     6    20    21   ar
     7    21    23    1
     8    23    24    2
     9    23    25    1
    10    21    22   ar
    11     2     3   am
    12     3     5    1
    13     5     6   ar
    14     6     7   ar
    15     7     8   ar
    16     8     9   ar
    17     9    11    1
    18    11    12   ar
    19    12    13   ar
    20    13    14   ar
    21    14    15   ar
    22    15    16   ar
    23     9    10   ar
    24    22    18   ar
    25    10     5   ar
    26    16    11   ar
    27     3     4    1
@<TRIPOS>MOLECULE
*****
 25 27 0 0 0
SMALL
GASTEIGER

@<TRIPOS>ATOM
      1 O          62.3288   89.3763   15.7483 O.2     1  UNL1       -0.2726
      2 C          63.6627   89.9155   15.3241 C.2     1  UNL1        0.2511
      3 N          64.4981   89.1575   14.3355 N.am    1  UNL1       -0.2823
      4 H          65.3736   89.5114   14.0571 H       1  UNL1        0.1549
      5 C          63.9997   87.8601   13.7712 C.ar    1  UNL1        0.0503
      6 C          64.2838   86.5726   14.4864 C.ar    1  UNL1        0.0147
      7 C          63.7854   85.2753   13.9220 C.ar    1  UNL1        0.0013
      8 C          63.0029   85.2655   12.6424 C.ar    1  UNL1        0.0001
      9 C          62.7187   86.5530   11.9271 C.ar    1  UNL1        0.0012
     10 C          63.2171   87.8503   12.4915 C.ar    1  UNL1        0.0147
     11 C          61.9361   86.5432   10.6475 C.ar    1  UNL1        0.0000
     12 C          60.6365   87.2866   10.5574 C.ar    1  UNL1        0.0000
     13 C          59.8540   87.2768    9.2778 C.ar    1  UNL1        0.0000
     14 C          60.3710   86.5235    8.0882 C.ar    1  UNL1        0.0000
     15 C          61.6706   85.7800    8.1783 C.ar    1  UNL1        0.0000
     16 C          62.4532   85.7898    9.4579 C.ar    1  UNL1        0.0000
     17 C          64.1611   91.2129   15.8885 C.3     1  UNL1        0.2141
     18 N          65.1419   92.0409   15.1124 N.ar    1  UNL1       -0.2155
     19 C          66.3376   92.7499   15.6760 C.ar    1  UNL1        0.2037
     20 N          67.0340   93.4524   14.5484 N.ar    1  UNL1       -0.1391
     21 C          66.2687   93.1775   13.2878 C.ar    1  UNL1        0.4880
     22 N          65.0994   92.3052   13.6365 N.ar    1  UNL1       -0.0790
     23 N          66.6125   93.6858   11.9191 N.pl3   1  UNL1        0.1230
     24 O          67.5994   92.9421   11.0689 O.2     1  UNL1        0.0448
     25 O          65.9693   94.9378   11.4006 O.co2   1  UNL1       -0.5734
@<TRIPOS>UNITY_ATOM_ATTR
23 1
charge 1
25 1
charge -1
@<TRIPOS>BOND
     1     1     2    2
     2     2    17    1
     3    17    18    1
     4    18    19   ar
     5    19    20   ar
     6    20    21   ar
     7    21    23    1
     8    23    24    2
     9    23    25    1
    10    21    22   ar
    11     2     3   am
    12     3     5    1
    13     5     6   ar
    14     6     7   ar
    15     7     8   ar
    16     8     9   ar
    17     9    11    1
    18    11    12   ar
    19    12    13   ar
    20    13    14   ar
    21    14    15   ar
    22    15    16   ar
    23     9    10   ar
    24    22    18   ar
    25    10     5   ar
    26    16    11   ar
    27     3     4    1
@<TRIPOS>MOLECULE
*****
 25 27 0 0 0
SMALL
GASTEIGER

@<TRIPOS>ATOM
      1 O          63.2068   88.8960   14.9935 O.2     1  UNL1       -0.2726
      2 C          63.5449   90.2416   14.4234 C.2     1  UNL1        0.2511
      3 N          63.0159   90.6404   13.0777 N.am    1  UNL1       -0.2823
      4 H          63.2378   91.5236   12.7036 H       1  UNL1        0.1549
      5 C          62.1488   89.6936   12.3019 C.ar    1  UNL1        0.0503
      6 C          60.7192   90.0475   12.0177 C.ar    1  UNL1        0.0147
      7 C          59.8522   89.1007   11.2420 C.ar    1  UNL1        0.0013
      8 C          60.4148   87.8000   10.7504 C.ar    1  UNL1        0.0001
      9 C          61.8445   87.4462   11.0345 C.ar    1  UNL1        0.0012
     10 C          62.7115   88.3930   11.8103 C.ar    1  UNL1        0.0147
     11 C          62.4071   86.1455   10.5429 C.ar    1  UNL1        0.0000
     12 C          62.6598   85.9434    9.0783 C.ar    1  UNL1        0.0000
     13 C          63.2224   84.6427    8.5867 C.ar    1  UNL1        0.0000
     14 C          63.5324   83.5441    9.5597 C.ar    1  UNL1        0.0000
     15 C          63.2798   83.7462   11.0244 C.ar    1  UNL1        0.0000
     16 C          62.7172   85.0469   11.5160 C.ar    1  UNL1        0.0000
     17 C          64.4120   91.1884   15.1992 C.3     1  UNL1        0.2141
     18 N          65.3801   92.0798   14.4794 N.ar    1  UNL1       -0.2155
     19 C          66.7133   92.5327   14.9964 C.ar    1  UNL1        0.2037
     20 N          67.3423   93.4076   13.9528 N.ar    1  UNL1       -0.1391
     21 C          66.3977   93.4953   12.7908 C.ar    1  UNL1        0.4880
     22 N          65.1850   92.6747   13.1163 N.ar    1  UNL1       -0.0790
     23 N          66.6257   94.2680   11.5256 N.pl3   1  UNL1        0.1230
     24 O          65.9642   95.6001   11.3307 O.2     1  UNL1        0.0448
     25 O          67.5153   93.7086   10.4552 O.co2   1  UNL1       -0.5734
@<TRIPOS>UNITY_ATOM_ATTR
23 1
charge 1
25 1
charge -1
@<TRIPOS>BOND
     1     1     2    2
     2     2    17    1
     3    17    18    1
     4    18    19   ar
     5    19    20   ar
     6    20    21   ar
     7    21    23    1
     8    23    24    2
     9    23    25    1
    10    21    22   ar
    11     2     3   am
    12     3     5    1
    13     5     6   ar
    14     6     7   ar
    15     7     8   ar
    16     8     9   ar
    17     9    11    1
    18    11    12   ar
    19    12    13   ar
    20    13    14   ar
    21    14    15   ar
    22    15    16   ar
    23     9    10   ar
    24    22    18   ar
    25    10     5   ar
    26    16    11   ar
    27     3     4    1
@<TRIPOS>MOLECULE
*****
 25 27 0 0 0
SMALL
GASTEIGER

@<TRIPOS>ATOM
      1 O          63.1685   89.2028   13.0756 O.2     1  UNL1       -0.2726
      2 C          63.2243   90.3707   12.1359 C.2     1  UNL1        0.2511
      3 N          62.6583   90.2478   10.7523 N.am    1  UNL1       -0.2823
      4 H          62.6949   91.0143   10.1356 H       1  UNL1        0.1549
      5 C          62.0364   88.9569   10.3083 C.ar    1  UNL1        0.0503
      6 C          60.8105   88.9732    9.4442 C.ar    1  UNL1        0.0147
      7 C          60.1887   87.6823    9.0002 C.ar    1  UNL1        0.0013
      8 C          60.7929   86.3753    9.4203 C.ar    1  UNL1        0.0001
      9 C          62.0189   86.3590   10.2844 C.ar    1  UNL1        0.0012
     10 C          62.6406   87.6498   10.7284 C.ar    1  UNL1        0.0147
     11 C          62.6231   85.0519   10.7045 C.ar    1  UNL1        0.0000
     12 C          62.4392   84.5576   12.1087 C.ar    1  UNL1        0.0000
     13 C          63.0433   83.2505   12.5288 C.ar    1  UNL1        0.0000
     14 C          63.8314   82.4378   11.5448 C.ar    1  UNL1        0.0000
     15 C          64.0154   82.9322   10.1406 C.ar    1  UNL1        0.0000
     16 C          63.4112   84.2392    9.7205 C.ar    1  UNL1        0.0000
     17 C          63.8461   91.6616   12.5799 C.3     1  UNL1        0.2141
     18 N          65.2393   92.0107   12.1476 N.ar    1  UNL1       -0.2155
     19 C          66.4564   92.0273   13.0242 C.ar    1  UNL1        0.2037
     20 N          67.6294   92.4314   12.1811 N.ar    1  UNL1       -0.1391
     21 C          67.1373   92.6644   10.7834 C.ar    1  UNL1        0.4880
     22 N          65.6602   92.4044   10.7627 N.ar    1  UNL1       -0.0790
     23 N          67.9753   93.0838    9.6121 N.pl3   1  UNL1        0.1230
     24 O          68.3758   94.5205    9.4526 O.2     1  UNL1        0.0448
     25 O          68.4126   92.0665    8.6003 O.co2   1  UNL1       -0.5734
@<TRIPOS>UNITY_ATOM_ATTR
23 1
charge 1
25 1
charge -1
@<TRIPOS>BOND
     1     1     2    2
     2     2    17    1
     3    17    18    1
     4    18    19   ar
     5    19    20   ar
     6    20    21   ar
     7    21    23    1
     8    23    24    2
     9    23    25    1
    10    21    22   ar
    11     2     3   am
    12     3     5    1
    13     5     6   ar
    14     6     7   ar
    15     7     8   ar
    16     8     9   ar
    17     9    11    1
    18    11    12   ar
    19    12    13   ar
    20    13    14   ar
    21    14    15   ar
    22    15    16   ar
    23     9    10   ar
    24    22    18   ar
    25    10     5   ar
    26    16    11   ar
    27     3     4    1
@<TRIPOS>MOLECULE
*****
 25 27 0 0 0
SMALL
GASTEIGER

@<TRIPOS>ATOM
      1 O          62.3051   89.6058   15.1817 O.2     1  UNL1       -0.2726
      2 C          63.6408   90.0825   14.6932 C.2     1  UNL1        0.2511
      3 N          64.1931   89.5670   13.3974 N.am    1  UNL1       -0.2823
      4 H          65.0698   89.8798   13.0768 H       1  UNL1        0.1549
      5 C          63.4096   88.5748   12.5900 C.ar    1  UNL1        0.0503
      6 C          62.5950   89.0374   11.4186 C.ar    1  UNL1        0.0147
      7 C          61.8116   88.0453   10.6112 C.ar    1  UNL1        0.0013
      8 C          61.8428   86.5905   10.9753 C.ar    1  UNL1        0.0001
      9 C          62.6575   86.1278   12.1467 C.ar    1  UNL1        0.0012
     10 C          63.4409   87.1200   12.9541 C.ar    1  UNL1        0.0147
     11 C          62.6887   84.6730   12.5108 C.ar    1  UNL1        0.0000
     12 C          62.6112   84.2583   13.9502 C.ar    1  UNL1        0.0000
     13 C          62.6425   82.8035   14.3143 C.ar    1  UNL1        0.0000
     14 C          62.7511   81.7634   13.2390 C.ar    1  UNL1        0.0000
     15 C          62.8286   82.1781   11.7996 C.ar    1  UNL1        0.0000
     16 C          62.7973   83.6329   11.4355 C.ar    1  UNL1        0.0000
     17 C          64.4243   91.0747   15.5006 C.3     1  UNL1        0.2141
     18 N          65.3239   92.0581   14.8126 N.ar    1  UNL1       -0.2155
     19 C          66.4744   92.7888   15.4391 C.ar    1  UNL1        0.2037
     20 N          67.0925   93.6659   14.3909 N.ar    1  UNL1       -0.1391
     21 C          66.3239   93.4773   13.1165 C.ar    1  UNL1        0.4880
     22 N          65.2309   92.4837   13.3772 N.ar    1  UNL1       -0.0790
     23 N          66.6000   94.1622   11.8109 N.pl3   1  UNL1        0.1230
     24 O          67.3784   93.4536   10.7422 O.2     1  UNL1        0.0448
     25 O          66.0977   95.5555   11.5739 O.co2   1  UNL1       -0.5734
@<TRIPOS>UNITY_ATOM_ATTR
23 1
charge 1
25 1
charge -1
@<TRIPOS>BOND
     1     1     2    2
     2     2    17    1
     3    17    18    1
     4    18    19   ar
     5    19    20   ar
     6    20    21   ar
     7    21    23    1
     8    23    24    2
     9    23    25    1
    10    21    22   ar
    11     2     3   am
    12     3     5    1
    13     5     6   ar
    14     6     7   ar
    15     7     8   ar
    16     8     9   ar
    17     9    11    1
    18    11    12   ar
    19    12    13   ar
    20    13    14   ar
    21    14    15   ar
    22    15    16   ar
    23     9    10   ar
    24    22    18   ar
    25    10     5   ar
    26    16    11   ar
    27     3     4    1
@<TRIPOS>MOLECULE
*****
 25 27 0 0 0
SMALL
GASTEIGER

@<TRIPOS>ATOM
      1 O          61.5651   85.9610   16.8314 O.2     1  UNL1       -0.2726
      2 C          62.6270   85.3104   15.9953 C.2     1  UNL1        0.2511
      3 N          63.7002   86.1459   15.3628 N.am    1  UNL1       -0.2823
      4 H          64.3972   85.7189   14.8140 H       1  UNL1        0.1549
      5 C          63.7116   87.6320   15.5664 C.ar    1  UNL1        0.0503
      6 C          63.1364   88.2217   16.8199 C.ar    1  UNL1        0.0147
      7 C          63.1479   89.7077   17.0234 C.ar    1  UNL1        0.0013
      8 C          63.7344   90.6041   15.9735 C.ar    1  UNL1        0.0001
      9 C          64.3096   90.0144   14.7199 C.ar    1  UNL1        0.0012
     10 C          64.2982   88.5284   14.5164 C.ar    1  UNL1        0.0147
     11 C          64.8962   90.9108   13.6699 C.ar    1  UNL1        0.0000
     12 C          66.2253   91.5664   13.9008 C.ar    1  UNL1        0.0000
     13 C          66.8119   92.4628   12.8508 C.ar    1  UNL1        0.0000
     14 C          66.0693   92.7035   11.5700 C.ar    1  UNL1        0.0000
     15 C          64.7401   92.0478   11.3391 C.ar    1  UNL1        0.0000
     16 C          64.1536   91.1515   12.3891 C.ar    1  UNL1        0.0000
     17 C          62.6156   83.8243   15.7917 C.3     1  UNL1        0.2141
     18 N          62.7164   83.2562   14.4071 N.ar    1  UNL1       -0.2155
     19 C          62.1753   81.9320   13.9559 C.ar    1  UNL1        0.2037
     20 N          62.5004   81.7699   12.5006 N.ar    1  UNL1       -0.1391
     21 C          63.2425   82.9940   12.0523 C.ar    1  UNL1        0.4880
     22 N          63.3760   83.9126   13.2306 N.ar    1  UNL1       -0.0790
     23 N          63.7602   83.2539   10.6687 N.pl3   1  UNL1        0.1230
     24 O          63.2351   84.4148    9.8771 O.2     1  UNL1        0.0448
     25 O          64.8031   82.3528   10.0766 O.co2   1  UNL1       -0.5734
@<TRIPOS>UNITY_ATOM_ATTR
23 1
charge 1
25 1
charge -1
@<TRIPOS>BOND
     1     1     2    2
     2     2    17    1
     3    17    18    1
     4    18    19   ar
     5    19    20   ar
     6    20    21   ar
     7    21    23    1
     8    23    24    2
     9    23    25    1
    10    21    22   ar
    11     2     3   am
    12     3     5    1
    13     5     6   ar
    14     6     7   ar
    15     7     8   ar
    16     8     9   ar
    17     9    11    1
    18    11    12   ar
    19    12    13   ar
    20    13    14   ar
    21    14    15   ar
    22    15    16   ar
    23     9    10   ar
    24    22    18   ar
    25    10     5   ar
    26    16    11   ar
    27     3     4    1
@<TRIPOS>MOLECULE
*****
 25 27 0 0 0
SMALL
GASTEIGER

@<TRIPOS>ATOM
      1 O          62.1522   89.2008   12.7234 O.2     1  UNL1       -0.2726
      2 C          63.4692   89.8632   13.0006 C.2     1  UNL1        0.2511
      3 N          64.3745   89.3163   14.0642 N.am    1  UNL1       -0.2823
      4 H          65.2389   89.7510   14.2461 H       1  UNL1        0.1549
      5 C          63.9629   88.1071   14.8506 C.ar    1  UNL1        0.0503
      6 C          63.5548   88.2497   16.2869 C.ar    1  UNL1        0.0147
      7 C          63.1432   87.0405   17.0732 C.ar    1  UNL1        0.0013
      8 C          63.1397   85.6887   16.4233 C.ar    1  UNL1        0.0001
      9 C          63.5478   85.5460   14.9870 C.ar    1  UNL1        0.0012
     10 C          63.9594   86.7552   14.2006 C.ar    1  UNL1        0.0147
     11 C          63.5443   84.1942   14.3370 C.ar    1  UNL1        0.0000
     12 C          62.6330   83.1183   14.8487 C.ar    1  UNL1        0.0000
     13 C          62.6295   81.7664   14.1987 C.ar    1  UNL1        0.0000
     14 C          63.5373   81.4904   13.0370 C.ar    1  UNL1        0.0000
     15 C          64.4486   82.5663   12.5253 C.ar    1  UNL1        0.0000
     16 C          64.4521   83.9182   13.1752 C.ar    1  UNL1        0.0000
     17 C          63.8808   91.0724   12.2142 C.3     1  UNL1        0.2141
     18 N          65.0987   91.8499   12.6167 N.ar    1  UNL1       -0.2155
     19 C          65.9111   92.7405   11.7240 C.ar    1  UNL1        0.2037
     20 N          67.0326   93.3144   12.5381 N.ar    1  UNL1       -0.1391
     21 C          66.9133   92.7786   13.9341 C.ar    1  UNL1        0.4880
     22 N          65.7182   91.8735   13.9827 N.ar    1  UNL1       -0.0790
     23 N          67.8286   93.0927   15.0803 N.pl3   1  UNL1        0.1230
     24 O          67.2591   93.3790   16.4381 O.2     1  UNL1        0.0448
     25 O          69.3133   93.1205   14.8686 O.co2   1  UNL1       -0.5734
@<TRIPOS>UNITY_ATOM_ATTR
23 1
charge 1
25 1
charge -1
@<TRIPOS>BOND
     1     1     2    2
     2     2    17    1
     3    17    18    1
     4    18    19   ar
     5    19    20   ar
     6    20    21   ar
     7    21    23    1
     8    23    24    2
     9    23    25    1
    10    21    22   ar
    11     2     3   am
    12     3     5    1
    13     5     6   ar
    14     6     7   ar
    15     7     8   ar
    16     8     9   ar
    17     9    11    1
    18    11    12   ar
    19    12    13   ar
    20    13    14   ar
    21    14    15   ar
    22    15    16   ar
    23     9    10   ar
    24    22    18   ar
    25    10     5   ar
    26    16    11   ar
    27     3     4    1
@<TRIPOS>MOLECULE
*****
 25 27 0 0 0
SMALL
GASTEIGER

@<TRIPOS>ATOM
      1 O          62.3795   89.3607   15.7212 O.2     1  UNL1       -0.2726
      2 C          63.7788   89.4923   15.1974 C.2     1  UNL1        0.2511
      3 N          64.5738   88.2645   14.8651 N.am    1  UNL1       -0.2823
      4 H          65.4923   88.3508   14.5212 H       1  UNL1        0.1549
      5 C          63.9694   86.9050   15.0566 C.ar    1  UNL1        0.0503
      6 C          63.3603   86.5342   16.3762 C.ar    1  UNL1        0.0147
      7 C          62.7559   85.1748   16.5677 C.ar    1  UNL1        0.0013
      8 C          62.7608   84.1861   15.4396 C.ar    1  UNL1        0.0001
      9 C          63.3700   84.5569   14.1200 C.ar    1  UNL1        0.0012
     10 C          63.9743   85.9164   13.9285 C.ar    1  UNL1        0.0147
     11 C          63.3748   83.5683   12.9919 C.ar    1  UNL1        0.0000
     12 C          64.0244   83.9224   11.6871 C.ar    1  UNL1        0.0000
     13 C          64.0293   82.9338   10.5590 C.ar    1  UNL1        0.0000
     14 C          63.3845   81.5911   10.7357 C.ar    1  UNL1        0.0000
     15 C          62.7349   81.2369   12.0405 C.ar    1  UNL1        0.0000
     16 C          62.7301   82.2256   13.1686 C.ar    1  UNL1        0.0000
     17 C          64.3832   90.8517   15.0058 C.3     1  UNL1        0.2141
     18 N          64.5776   91.3979   13.6224 N.ar    1  UNL1       -0.2155
     19 C          63.8848   90.9206   12.3807 C.ar    1  UNL1        0.2037
     20 N          64.3779   91.7450   11.2287 N.ar    1  UNL1       -0.1391
     21 C          65.3756   92.7319   11.7585 C.ar    1  UNL1        0.4880
     22 N          65.4990   92.5174   13.2379 N.ar    1  UNL1       -0.0790
     23 N          66.1193   93.7539   10.9507 N.pl3   1  UNL1        0.1230
     24 O          67.5519   93.5156   10.5753 O.2     1  UNL1        0.0448
     25 O          65.4303   95.0142   10.5183 O.co2   1  UNL1       -0.5734
@<TRIPOS>UNITY_ATOM_ATTR
23 1
charge 1
25 1
charge -1
@<TRIPOS>BOND
     1     1     2    2
     2     2    17    1
     3    17    18    1
     4    18    19   ar
     5    19    20   ar
     6    20    21   ar
     7    21    23    1
     8    23    24    2
     9    23    25    1
    10    21    22   ar
    11     2     3   am
    12     3     5    1
    13     5     6   ar
    14     6     7   ar
    15     7     8   ar
    16     8     9   ar
    17     9    11    1
    18    11    12   ar
    19    12    13   ar
    20    13    14   ar
    21    14    15   ar
    22    15    16   ar
    23     9    10   ar
    24    22    18   ar
    25    10     5   ar
    26    16    11   ar
    27     3     4    1
@<TRIPOS>MOLECULE
*****
 25 27 0 0 0
SMALL
GASTEIGER

@<TRIPOS>ATOM
      1 O          63.1220   90.7407   10.6464 O.2     1  UNL1       -0.2726
      2 C          62.4553   90.2472   11.8962 C.2     1  UNL1        0.2511
      3 N          63.1135   90.4522   13.2284 N.am    1  UNL1       -0.2823
      4 H          62.6759   90.1283   14.0487 H       1  UNL1        0.1549
      5 C          64.4385   91.1506   13.3108 C.ar    1  UNL1        0.0503
      6 C          65.3391   90.9141   14.4867 C.ar    1  UNL1        0.0147
      7 C          66.6640   91.6126   14.5691 C.ar    1  UNL1        0.0013
      8 C          67.0882   92.5476   13.4755 C.ar    1  UNL1        0.0001
      9 C          66.1875   92.7842   12.2997 C.ar    1  UNL1        0.0012
     10 C          64.8626   92.0857   12.2173 C.ar    1  UNL1        0.0147
     11 C          66.6116   93.7192   11.2061 C.ar    1  UNL1        0.0000
     12 C          67.3520   93.1914   10.0132 C.ar    1  UNL1        0.0000
     13 C          67.7762   94.1264    8.9197 C.ar    1  UNL1        0.0000
     14 C          67.4600   95.5893    9.0191 C.ar    1  UNL1        0.0000
     15 C          66.7195   96.1171   10.2120 C.ar    1  UNL1        0.0000
     16 C          66.2954   95.1821   11.3055 C.ar    1  UNL1        0.0000
     17 C          61.1304   89.5487   11.8138 C.3     1  UNL1        0.2141
     18 N          60.9731   88.3395   10.9404 N.ar    1  UNL1       -0.2155
     19 C          61.6504   87.0157   11.1371 C.ar    1  UNL1        0.2037
     20 N          61.2068   86.0997   10.0351 N.ar    1  UNL1       -0.1391
     21 C          60.2552   86.8575    9.1574 C.ar    1  UNL1        0.4880
     22 N          60.1108   88.2417    9.7169 N.ar    1  UNL1       -0.0790
     23 N          59.5687   86.3246    7.9348 N.pl3   1  UNL1        0.1230
     24 O          58.1879   86.7948    7.5851 O.2     1  UNL1        0.0448
     25 O          60.2629   85.3215    7.0621 O.co2   1  UNL1       -0.5734
@<TRIPOS>UNITY_ATOM_ATTR
23 1
charge 1
25 1
charge -1
@<TRIPOS>BOND
     1     1     2    2
     2     2    17    1
     3    17    18    1
     4    18    19   ar
     5    19    20   ar
     6    20    21   ar
     7    21    23    1
     8    23    24    2
     9    23    25    1
    10    21    22   ar
    11     2     3   am
    12     3     5    1
    13     5     6   ar
    14     6     7   ar
    15     7     8   ar
    16     8     9   ar
    17     9    11    1
    18    11    12   ar
    19    12    13   ar
    20    13    14   ar
    21    14    15   ar
    22    15    16   ar
    23     9    10   ar
    24    22    18   ar
    25    10     5   ar
    26    16    11   ar
    27     3     4    1
