@<TRIPOS>MOLECULE
*****
 34 38 0 0 0
SMALL
GASTEIGER

@<TRIPOS>ATOM
      1 C          64.2602   85.9142   15.7578 C.3     1  UNL1        0.0730
      2 N          64.0354   84.8385   14.7368 N.3     1  UNL1       -0.2726
      3 C          64.4243   83.3965   14.8751 C.3     1  UNL1        0.0721
      4 C          64.0114   82.6829   13.6220 C.3     1  UNL1        0.0190
      5 C          63.3673   83.6839   12.7092 C.3     1  UNL1        0.0201
      6 C          63.0763   82.7188   11.5984 C.3     1  UNL1        0.0061
      7 C          62.6874   84.1608   11.4601 C.3     1  UNL1        0.0237
      8 C          63.3821   85.0162   13.3982 C.3     1  UNL1        0.0724
      9 C          62.0703   85.2688   10.6591 C.ar    1  UNL1       -0.0225
     10 C          62.3118   85.3500    9.1809 C.ar    1  UNL1       -0.0043
     11 C          61.6947   86.4579    8.3799 C.ar    1  UNL1        0.0035
     12 C          60.8362   87.4847    9.0571 C.ar    1  UNL1        0.0714
     13 C          60.5948   87.4036   10.5354 C.ar    1  UNL1        0.0035
     14 C          61.2118   86.2956   11.3364 C.ar    1  UNL1       -0.0043
     15 C          60.2191   88.5927    8.2561 C.3     1  UNL1        0.4186
     16 F          59.6020   89.7008    7.4551 F       1  UNL1       -0.1659
     17 F          59.5086   87.5820    7.4055 F       1  UNL1       -0.1659
     18 F          60.9297   89.6034    9.1068 F       1  UNL1       -0.1659
     19 C          63.1753   86.2600   16.7342 C.3     1  UNL1        0.0294
     20 C          63.1105   87.6364   17.3270 C.3     1  UNL1        0.0666
     21 S          62.4635   88.7528   16.5622 S.3     1  UNL1       -0.0756
     22 C          63.9771   88.8543   13.6728 C.3     1  UNL1        0.1340
     23 N          63.9920   89.9337   14.7144 N.ar    1  UNL1       -0.2884
     24 C          63.2963   89.8870   16.0425 C.ar    1  UNL1        0.1932
     25 N          63.5795   91.1737   16.7596 N.ar    1  UNL1       -0.1221
     26 N          64.4503   92.0155   15.8748 N.ar    1  UNL1       -0.1282
     27 C          64.7053   91.2492   14.6107 C.ar    1  UNL1        0.1678
     28 C          65.5289   91.7164   13.4473 C.2     1  UNL1        0.0488
     29 C          64.8670   92.0334   12.1391 C.2     1  UNL1       -0.0121
     30 C          65.6906   92.5006   10.9757 C.3     1  UNL1        0.1133
     31 C          67.1761   92.6507   11.1207 C.2     1  UNL1        0.2500
     32 O          67.9997   93.1179    9.9573 O.2     1  UNL1       -0.2726
     33 N          67.8379   92.3337   12.4289 N.am    1  UNL1       -0.1775
     34 C          67.0143   91.8665   13.5922 C.2     1  UNL1        0.0913
@<TRIPOS>BOND
     1    22    23    1
     2    23    24   ar
     3    24    21    1
     4    21    20    1
     5    20    19    1
     6    19     1    1
     7     1     2    1
     8     2     3    1
     9     3     4    1
    10     5     4    1
    11     5     6    1
    12     6     7    1
    13     7     9    1
    14     9    10   ar
    15    10    11   ar
    16    11    12   ar
    17    12    15    1
    18    15    16    1
    19    15    17    1
    20    15    18    1
    21    12    13   ar
    22    13    14   ar
    23     5     8    1
    24    24    25   ar
    25    25    26   ar
    26    26    27   ar
    27    27    28    1
    28    28    29    2
    29    29    30    1
    30    30    31    1
    31    31    32    2
    32    31    33    1
    33    33    34    2
    34    27    23   ar
    35    34    28    1
    36     8     2    1
    37     7     5    1
    38    14     9   ar
@<TRIPOS>MOLECULE
*****
 34 38 0 0 0
SMALL
GASTEIGER

@<TRIPOS>ATOM
      1 C          64.1776   86.7895   15.2773 C.3     1  UNL1        0.0730
      2 N          64.0809   85.6181   14.3454 N.3     1  UNL1       -0.2726
      3 C          64.6781   84.2607   14.5705 C.3     1  UNL1        0.0721
      4 C          64.3363   83.4022   13.3890 C.3     1  UNL1        0.0190
      5 C          63.5278   84.2290   12.4336 C.3     1  UNL1        0.0201
      6 C          63.3471   83.1505   11.4069 C.3     1  UNL1        0.0061
      7 C          62.7499   84.5080   11.1817 C.3     1  UNL1        0.0237
      8 C          63.3700   85.5986   13.0247 C.3     1  UNL1        0.0724
      9 C          61.9560   85.4527   10.3290 C.ar    1  UNL1       -0.0225
     10 C          61.0960   86.5005   10.9713 C.ar    1  UNL1       -0.0043
     11 C          60.3021   87.4452   10.1186 C.ar    1  UNL1        0.0035
     12 C          60.3682   87.3422    8.6236 C.ar    1  UNL1        0.0714
     13 C          61.2283   86.2944    7.9813 C.ar    1  UNL1        0.0035
     14 C          62.0222   85.3497    8.8340 C.ar    1  UNL1       -0.0043
     15 C          59.5743   88.2870    7.7709 C.3     1  UNL1        0.4186
     16 F          58.7804   89.2317    6.9181 F       1  UNL1       -0.1659
     17 F          60.2221   89.4520    8.4586 F       1  UNL1       -0.1659
     18 F          58.9265   87.1219    7.0832 F       1  UNL1       -0.1659
     19 C          64.6136   88.1274   14.7576 C.3     1  UNL1        0.0294
     20 C          63.6900   89.3057   14.8511 C.3     1  UNL1        0.0666
     21 S          63.4763   90.1876   13.6568 S.3     1  UNL1       -0.0756
     22 C          64.0025   91.5953   10.7600 C.3     1  UNL1        0.1340
     23 N          64.6576   91.9725   12.0556 N.ar    1  UNL1       -0.2884
     24 C          64.4158   91.3255   13.3871 C.ar    1  UNL1        0.1932
     25 N          65.2783   92.0161   14.4016 N.ar    1  UNL1       -0.1221
     26 N          66.0532   93.0899   13.6971 N.ar    1  UNL1       -0.1282
     27 C          65.6697   93.0631   12.2472 C.ar    1  UNL1        0.1678
     28 C          66.2042   93.9678   11.1768 C.2     1  UNL1        0.0488
     29 C          67.1187   93.4215   10.1207 C.2     1  UNL1       -0.0121
     30 C          67.6533   94.3263    9.0503 C.3     1  UNL1        0.1133
     31 C          67.2733   95.7774    9.0362 C.2     1  UNL1        0.2500
     32 O          67.8079   96.6821    7.9658 O.2     1  UNL1       -0.2726
     33 N          66.3589   96.3236   10.0923 N.am    1  UNL1       -0.1775
     34 C          65.8243   95.4188   11.1626 C.2     1  UNL1        0.0913
@<TRIPOS>BOND
     1    22    23    1
     2    23    24   ar
     3    24    21    1
     4    21    20    1
     5    20    19    1
     6    19     1    1
     7     1     2    1
     8     2     3    1
     9     3     4    1
    10     5     4    1
    11     5     6    1
    12     6     7    1
    13     7     9    1
    14     9    10   ar
    15    10    11   ar
    16    11    12   ar
    17    12    15    1
    18    15    16    1
    19    15    17    1
    20    15    18    1
    21    12    13   ar
    22    13    14   ar
    23     5     8    1
    24    24    25   ar
    25    25    26   ar
    26    26    27   ar
    27    27    28    1
    28    28    29    2
    29    29    30    1
    30    30    31    1
    31    31    32    2
    32    31    33    1
    33    33    34    2
    34    27    23   ar
    35    34    28    1
    36     8     2    1
    37     7     5    1
    38    14     9   ar
@<TRIPOS>MOLECULE
*****
 34 38 0 0 0
SMALL
GASTEIGER

@<TRIPOS>ATOM
      1 C          61.8214   86.6070    8.9256 C.3     1  UNL1        0.0730
      2 N          62.5685   85.4475    9.5150 N.3     1  UNL1       -0.2726
      3 C          63.1229   84.2784    8.7562 C.3     1  UNL1        0.0721
      4 C          63.7894   83.3619    9.7390 C.3     1  UNL1        0.0190
      5 C          63.6468   83.9646   11.1052 C.3     1  UNL1        0.0201
      6 C          64.3749   82.8744   11.8342 C.3     1  UNL1        0.0061
      7 C          63.8205   84.0435   12.5930 C.3     1  UNL1        0.0237
      8 C          62.8923   85.2535   10.9668 C.3     1  UNL1        0.0724
      9 C          63.6006   84.7641   13.8901 C.ar    1  UNL1       -0.0225
     10 C          62.7061   84.1686   14.9366 C.ar    1  UNL1       -0.0043
     11 C          62.4862   84.8892   16.2337 C.ar    1  UNL1        0.0035
     12 C          63.1609   86.2052   16.4842 C.ar    1  UNL1        0.0714
     13 C          64.0555   86.8007   15.4377 C.ar    1  UNL1        0.0035
     14 C          64.2754   86.0801   14.1406 C.ar    1  UNL1       -0.0043
     15 C          62.9411   86.9258   17.7813 C.3     1  UNL1        0.4186
     16 F          62.7212   87.6464   19.0785 F       1  UNL1       -0.1659
     17 F          63.5078   88.1784   17.1815 F       1  UNL1       -0.1659
     18 F          62.3744   85.6732   18.3811 F       1  UNL1       -0.1659
     19 C          61.8982   87.9569    9.5751 C.3     1  UNL1        0.0294
     20 C          60.7638   88.9268    9.4257 C.3     1  UNL1        0.0666
     21 S          60.6477   90.0948   10.3597 S.3     1  UNL1       -0.0756
     22 C          63.5590   91.5674   10.2855 C.3     1  UNL1        0.1340
     23 N          62.9352   90.9068   11.4790 N.ar    1  UNL1       -0.2884
     24 C          61.5971   90.2299   11.5131 C.ar    1  UNL1        0.1932
     25 N          61.3749   89.7118   12.9032 N.ar    1  UNL1       -0.1221
     26 N          62.5758   90.0685   13.7282 N.ar    1  UNL1       -0.1282
     27 C          63.5402   90.8070   12.8481 C.ar    1  UNL1        0.1678
     28 C          64.8750   91.3504   13.2639 C.2     1  UNL1        0.0488
     29 C          65.5264   90.8578   14.5221 C.2     1  UNL1       -0.0121
     30 C          66.8612   91.4012   14.9380 C.3     1  UNL1        0.1133
     31 C          67.5447   92.4371   14.0955 C.2     1  UNL1        0.2500
     32 O          68.8796   92.9805   14.5113 O.2     1  UNL1       -0.2726
     33 N          66.8934   92.9297   12.8373 N.am    1  UNL1       -0.1775
     34 C          65.5585   92.3863   12.4215 C.2     1  UNL1        0.0913
@<TRIPOS>BOND
     1    22    23    1
     2    23    24   ar
     3    24    21    1
     4    21    20    1
     5    20    19    1
     6    19     1    1
     7     1     2    1
     8     2     3    1
     9     3     4    1
    10     5     4    1
    11     5     6    1
    12     6     7    1
    13     7     9    1
    14     9    10   ar
    15    10    11   ar
    16    11    12   ar
    17    12    15    1
    18    15    16    1
    19    15    17    1
    20    15    18    1
    21    12    13   ar
    22    13    14   ar
    23     5     8    1
    24    24    25   ar
    25    25    26   ar
    26    26    27   ar
    27    27    28    1
    28    28    29    2
    29    29    30    1
    30    30    31    1
    31    31    32    2
    32    31    33    1
    33    33    34    2
    34    27    23   ar
    35    34    28    1
    36     8     2    1
    37     7     5    1
    38    14     9   ar
@<TRIPOS>MOLECULE
*****
 34 38 0 0 0
SMALL
GASTEIGER

@<TRIPOS>ATOM
      1 C          62.9785   82.5247   14.2089 C.3     1  UNL1        0.0730
      2 N          63.2574   82.8345   12.7680 N.3     1  UNL1       -0.2726
      3 C          64.0481   81.9823   11.8200 C.3     1  UNL1        0.0721
      4 C          64.0739   82.6721   10.4882 C.3     1  UNL1        0.0190
      5 C          63.2993   83.9505   10.6131 C.3     1  UNL1        0.0201
      6 C          63.4957   84.3922    9.1932 C.3     1  UNL1        0.0061
      7 C          62.7050   85.2444   10.1412 C.3     1  UNL1        0.0237
      8 C          62.7946   84.0508   12.0221 C.3     1  UNL1        0.0724
      9 C          61.9054   86.4833   10.4161 C.ar    1  UNL1       -0.0225
     10 C          60.5333   86.6360    9.8296 C.ar    1  UNL1       -0.0043
     11 C          59.7337   87.8750   10.1044 C.ar    1  UNL1        0.0035
     12 C          60.3063   88.9613   10.9658 C.ar    1  UNL1        0.0714
     13 C          61.6785   88.8087   11.5523 C.ar    1  UNL1        0.0035
     14 C          62.4780   87.5697   11.2774 C.ar    1  UNL1       -0.0043
     15 C          59.5068   90.2003   11.2407 C.3     1  UNL1        0.4186
     16 F          58.7071   91.4394   11.5156 F       1  UNL1       -0.1659
     17 F          60.1255   90.8645   10.0465 F       1  UNL1       -0.1659
     18 F          58.8880   89.5361   12.4348 F       1  UNL1       -0.1659
     19 C          62.5436   83.6170   15.1403 C.3     1  UNL1        0.0294
     20 C          63.5278   84.6561   15.5893 C.3     1  UNL1        0.0666
     21 S          63.1555   85.6226   16.6743 S.3     1  UNL1       -0.0756
     22 C          64.4964   87.0313   14.0537 C.3     1  UNL1        0.1340
     23 N          63.9445   87.7442   15.2525 N.ar    1  UNL1       -0.2884
     24 C          63.3282   87.0967   16.4571 C.ar    1  UNL1        0.1932
     25 N          62.9148   88.1821   17.4063 N.ar    1  UNL1       -0.1221
     26 N          63.2756   89.5005   16.7884 N.ar    1  UNL1       -0.1282
     27 C          63.9120   89.2299   15.4573 C.ar    1  UNL1        0.1678
     28 C          64.4257   90.2635   14.4992 C.2     1  UNL1        0.0488
     29 C          65.7488   90.9250   14.7481 C.2     1  UNL1       -0.0121
     30 C          66.2625   91.9586   13.7900 C.3     1  UNL1        0.1133
     31 C          65.4531   92.3305   12.5831 C.2     1  UNL1        0.2500
     32 O          65.9668   93.3640   11.6250 O.2     1  UNL1       -0.2726
     33 N          64.1300   91.6689   12.3342 N.am    1  UNL1       -0.1775
     34 C          63.6164   90.6354   13.2924 C.2     1  UNL1        0.0913
@<TRIPOS>BOND
     1    22    23    1
     2    23    24   ar
     3    24    21    1
     4    21    20    1
     5    20    19    1
     6    19     1    1
     7     1     2    1
     8     2     3    1
     9     3     4    1
    10     5     4    1
    11     5     6    1
    12     6     7    1
    13     7     9    1
    14     9    10   ar
    15    10    11   ar
    16    11    12   ar
    17    12    15    1
    18    15    16    1
    19    15    17    1
    20    15    18    1
    21    12    13   ar
    22    13    14   ar
    23     5     8    1
    24    24    25   ar
    25    25    26   ar
    26    26    27   ar
    27    27    28    1
    28    28    29    2
    29    29    30    1
    30    30    31    1
    31    31    32    2
    32    31    33    1
    33    33    34    2
    34    27    23   ar
    35    34    28    1
    36     8     2    1
    37     7     5    1
    38    14     9   ar
@<TRIPOS>MOLECULE
*****
 34 38 0 0 0
SMALL
GASTEIGER

@<TRIPOS>ATOM
      1 C          63.5198   90.0100   15.8966 C.3     1  UNL1        0.0730
      2 N          63.9698   90.6846   14.6347 N.3     1  UNL1       -0.2726
      3 C          65.0123   91.7582   14.5323 C.3     1  UNL1        0.0721
      4 C          65.1430   92.1411   13.0879 C.3     1  UNL1        0.0190
      5 C          64.1814   91.3040   12.2976 C.3     1  UNL1        0.0201
      6 C          64.5284   91.8873   10.9599 C.3     1  UNL1        0.0061
      7 C          63.4859   90.8136   11.0623 C.3     1  UNL1        0.0237
      8 C          63.4563   90.4038   13.2535 C.3     1  UNL1        0.0724
      9 C          62.4825   89.9106   10.4082 C.ar    1  UNL1       -0.0225
     10 C          61.1481   90.4518    9.9882 C.ar    1  UNL1       -0.0043
     11 C          60.1447   89.5488    9.3342 C.ar    1  UNL1        0.0035
     12 C          60.4757   88.1047    9.1002 C.ar    1  UNL1        0.0714
     13 C          61.8102   87.5635    9.5202 C.ar    1  UNL1        0.0035
     14 C          62.8136   88.4665   10.1742 C.ar    1  UNL1       -0.0043
     15 C          59.4723   87.2017    8.4461 C.3     1  UNL1        0.4186
     16 F          58.4689   86.2987    7.7920 F       1  UNL1       -0.1659
     17 F          60.1290   86.0120    9.0812 F       1  UNL1       -0.1659
     18 F          58.8157   88.3914    7.8110 F       1  UNL1       -0.1659
     19 C          63.1424   88.5584   15.8776 C.3     1  UNL1        0.0294
     20 C          63.1287   87.7702   17.1538 C.3     1  UNL1        0.0666
     21 S          63.1402   86.2709   17.1094 S.3     1  UNL1       -0.0756
     22 C          61.6635   84.0149   15.2711 C.3     1  UNL1        0.1340
     23 N          63.0629   84.5231   15.0884 N.ar    1  UNL1       -0.2884
     24 C          63.7417   85.5601   15.9334 C.ar    1  UNL1        0.1932
     25 N          65.1275   85.7614   15.3959 N.ar    1  UNL1       -0.1221
     26 N          65.3053   84.8489   14.2188 N.ar    1  UNL1       -0.1282
     27 C          64.0293   84.0835   14.0287 C.ar    1  UNL1        0.1678
     28 C          63.7659   83.0586   12.9656 C.2     1  UNL1        0.0488
     29 C          64.1131   83.3540   11.5365 C.2     1  UNL1       -0.0121
     30 C          63.8497   82.3291   10.4734 C.3     1  UNL1        0.1133
     31 C          63.2392   81.0087   10.8395 C.2     1  UNL1        0.2500
     32 O          62.9758   79.9838    9.7764 O.2     1  UNL1       -0.2726
     33 N          62.8920   80.7133   12.2686 N.am    1  UNL1       -0.1775
     34 C          63.1554   81.7383   13.3316 C.2     1  UNL1        0.0913
@<TRIPOS>BOND
     1    22    23    1
     2    23    24   ar
     3    24    21    1
     4    21    20    1
     5    20    19    1
     6    19     1    1
     7     1     2    1
     8     2     3    1
     9     3     4    1
    10     5     4    1
    11     5     6    1
    12     6     7    1
    13     7     9    1
    14     9    10   ar
    15    10    11   ar
    16    11    12   ar
    17    12    15    1
    18    15    16    1
    19    15    17    1
    20    15    18    1
    21    12    13   ar
    22    13    14   ar
    23     5     8    1
    24    24    25   ar
    25    25    26   ar
    26    26    27   ar
    27    27    28    1
    28    28    29    2
    29    29    30    1
    30    30    31    1
    31    31    32    2
    32    31    33    1
    33    33    34    2
    34    27    23   ar
    35    34    28    1
    36     8     2    1
    37     7     5    1
    38    14     9   ar
@<TRIPOS>MOLECULE
*****
 34 38 0 0 0
SMALL
GASTEIGER

@<TRIPOS>ATOM
      1 C          60.4325   87.5980    9.0010 C.3     1  UNL1        0.0730
      2 N          61.4102   86.4740    9.1760 N.3     1  UNL1       -0.2726
      3 C          61.9848   85.6264    8.0799 C.3     1  UNL1        0.0721
      4 C          62.9146   84.6288    8.7045 C.3     1  UNL1        0.0190
      5 C          62.9148   84.8598   10.1866 C.3     1  UNL1        0.0201
      6 C          63.8871   83.7661   10.5157 C.3     1  UNL1        0.0061
      7 C          63.3126   84.6136   11.6118 C.3     1  UNL1        0.0237
      8 C          61.9850   86.0002   10.4780 C.3     1  UNL1        0.0724
      9 C          63.2105   84.9609   13.0675 C.ar    1  UNL1       -0.0225
     10 C          63.9599   86.1410   13.6113 C.ar    1  UNL1       -0.0043
     11 C          63.8578   86.4882   15.0670 C.ar    1  UNL1        0.0035
     12 C          63.0064   85.6553   15.9788 C.ar    1  UNL1        0.0714
     13 C          62.2570   84.4752   15.4349 C.ar    1  UNL1        0.0035
     14 C          62.3591   84.1280   13.9792 C.ar    1  UNL1       -0.0043
     15 C          62.9044   86.0026   17.4344 C.3     1  UNL1        0.4186
     16 F          62.8023   86.3498   18.8902 F       1  UNL1       -0.1659
     17 F          61.4775   86.4199   17.2349 F       1  UNL1       -0.1659
     18 F          64.3312   85.5853   17.6340 F       1  UNL1       -0.1659
     19 C          60.8868   89.0187    9.1598 C.3     1  UNL1        0.0294
     20 C          60.5101   89.7939   10.3876 C.3     1  UNL1        0.0666
     21 S          61.3689   89.7183   11.6151 S.3     1  UNL1       -0.0756
     22 C          63.2521   90.0763   14.2561 C.3     1  UNL1        0.1340
     23 N          63.5066   90.6740   12.9041 N.ar    1  UNL1       -0.2884
     24 C          62.6410   90.5095   11.6901 C.ar    1  UNL1        0.1932
     25 N          63.2708   91.2751   10.5644 N.ar    1  UNL1       -0.1221
     26 N          64.5258   91.9128   11.0826 N.ar    1  UNL1       -0.1282
     27 C          64.6715   91.5414   12.5286 C.ar    1  UNL1        0.1678
     28 C          65.7864   91.9631   13.4392 C.2     1  UNL1        0.0488
     29 C          65.5209   92.1795   14.8996 C.2     1  UNL1       -0.0121
     30 C          66.6357   92.6012   15.8102 C.3     1  UNL1        0.1133
     31 C          68.0161   92.8067   15.2603 C.2     1  UNL1        0.2500
     32 O          69.1310   93.2285   16.1709 O.2     1  UNL1       -0.2726
     33 N          68.2817   92.5904   13.7999 N.am    1  UNL1       -0.1775
     34 C          67.1667   92.1686   12.8894 C.2     1  UNL1        0.0913
@<TRIPOS>BOND
     1    22    23    1
     2    23    24   ar
     3    24    21    1
     4    21    20    1
     5    20    19    1
     6    19     1    1
     7     1     2    1
     8     2     3    1
     9     3     4    1
    10     5     4    1
    11     5     6    1
    12     6     7    1
    13     7     9    1
    14     9    10   ar
    15    10    11   ar
    16    11    12   ar
    17    12    15    1
    18    15    16    1
    19    15    17    1
    20    15    18    1
    21    12    13   ar
    22    13    14   ar
    23     5     8    1
    24    24    25   ar
    25    25    26   ar
    26    26    27   ar
    27    27    28    1
    28    28    29    2
    29    29    30    1
    30    30    31    1
    31    31    32    2
    32    31    33    1
    33    33    34    2
    34    27    23   ar
    35    34    28    1
    36     8     2    1
    37     7     5    1
    38    14     9   ar
@<TRIPOS>MOLECULE
*****
 34 38 0 0 0
SMALL
GASTEIGER

@<TRIPOS>ATOM
      1 C          58.7885   89.8948    6.9080 C.3     1  UNL1        0.0730
      2 N          59.3981   88.7512    7.6634 N.3     1  UNL1       -0.2726
      3 C          59.0533   87.3009    7.4968 C.3     1  UNL1        0.0721
      4 C          59.9016   86.5106    8.4485 C.3     1  UNL1        0.0190
      5 C          60.7707   87.4724    9.2032 C.3     1  UNL1        0.0201
      6 C          61.4678   86.4356   10.0334 C.3     1  UNL1        0.0061
      7 C          61.8126   87.8859   10.2000 C.3     1  UNL1        0.0237
      8 C          60.4595   88.8572    8.7180 C.3     1  UNL1        0.0724
      9 C          62.6132   88.9620   10.8716 C.ar    1  UNL1       -0.0225
     10 C          63.0581   88.7889   12.2936 C.ar    1  UNL1       -0.0043
     11 C          63.8587   89.8650   12.9652 C.ar    1  UNL1        0.0035
     12 C          64.2144   91.1141   12.2148 C.ar    1  UNL1        0.0714
     13 C          63.7696   91.2872   10.7928 C.ar    1  UNL1        0.0035
     14 C          62.9690   90.2111   10.1211 C.ar    1  UNL1       -0.0043
     15 C          65.0150   92.1902   12.8864 C.3     1  UNL1        0.4186
     16 F          65.8156   93.2663   13.5581 F       1  UNL1       -0.1659
     17 F          64.8409   93.0701   11.6841 F       1  UNL1       -0.1659
     18 F          65.1891   91.3103   14.0887 F       1  UNL1       -0.1659
     19 C          59.4091   90.3617    5.6248 C.3     1  UNL1        0.0294
     20 C          59.1181   91.7397    5.1086 C.3     1  UNL1        0.0666
     21 S          59.4140   92.0831    3.6788 S.3     1  UNL1       -0.0756
     22 C          60.3488   94.2711    1.4453 C.3     1  UNL1        0.1340
     23 N          61.2547   93.3634    2.2235 N.ar    1  UNL1       -0.2884
     24 C          60.8250   92.3577    3.2501 C.ar    1  UNL1        0.1932
     25 N          62.0540   91.6748    3.7728 N.ar    1  UNL1       -0.1221
     26 N          63.2433   92.2585    3.0693 N.ar    1  UNL1       -0.1282
     27 C          62.7493   93.3021    2.1117 C.ar    1  UNL1        0.1678
     28 C          63.6005   94.1377    1.2021 C.2     1  UNL1        0.0488
     29 C          64.4488   95.2372    1.7691 C.2     1  UNL1       -0.0121
     30 C          65.2999   96.0728    0.8594 C.3     1  UNL1        0.1133
     31 C          65.3027   95.8087   -0.6172 C.2     1  UNL1        0.2500
     32 O          66.1538   96.6443   -1.5268 O.2     1  UNL1       -0.2726
     33 N          64.4544   94.7092   -1.1842 N.am    1  UNL1       -0.1775
     34 C          63.6032   93.8737   -0.2745 C.2     1  UNL1        0.0913
@<TRIPOS>BOND
     1    22    23    1
     2    23    24   ar
     3    24    21    1
     4    21    20    1
     5    20    19    1
     6    19     1    1
     7     1     2    1
     8     2     3    1
     9     3     4    1
    10     5     4    1
    11     5     6    1
    12     6     7    1
    13     7     9    1
    14     9    10   ar
    15    10    11   ar
    16    11    12   ar
    17    12    15    1
    18    15    16    1
    19    15    17    1
    20    15    18    1
    21    12    13   ar
    22    13    14   ar
    23     5     8    1
    24    24    25   ar
    25    25    26   ar
    26    26    27   ar
    27    27    28    1
    28    28    29    2
    29    29    30    1
    30    30    31    1
    31    31    32    2
    32    31    33    1
    33    33    34    2
    34    27    23   ar
    35    34    28    1
    36     8     2    1
    37     7     5    1
    38    14     9   ar
@<TRIPOS>MOLECULE
*****
 34 38 0 0 0
SMALL
GASTEIGER

@<TRIPOS>ATOM
      1 C          59.6562   89.8418   10.6179 C.3     1  UNL1        0.0730
      2 N          60.0799   88.7370    9.6960 N.3     1  UNL1       -0.2726
      3 C          59.7670   88.6415    8.2321 C.3     1  UNL1        0.0721
      4 C          60.3845   87.3791    7.7076 C.3     1  UNL1        0.0190
      5 C          61.0791   86.6945    8.8473 C.3     1  UNL1        0.0201
      6 C          61.5730   85.5241    8.0497 C.3     1  UNL1        0.0061
      7 C          61.8859   85.6196    9.5135 C.3     1  UNL1        0.0237
      8 C          60.8908   87.5337   10.0762 C.3     1  UNL1        0.0724
      9 C          62.5323   85.0543   10.7434 C.ar    1  UNL1       -0.0225
     10 C          63.1770   83.7007   10.6970 C.ar    1  UNL1       -0.0043
     11 C          63.8234   83.1353   11.9268 C.ar    1  UNL1        0.0035
     12 C          63.8251   83.9235   13.2030 C.ar    1  UNL1        0.0714
     13 C          63.1804   85.2771   13.2494 C.ar    1  UNL1        0.0035
     14 C          62.5340   85.8425   12.0195 C.ar    1  UNL1       -0.0043
     15 C          64.4715   83.3582   14.4328 C.3     1  UNL1        0.4186
     16 F          65.1179   82.7927   15.6627 F       1  UNL1       -0.1659
     17 F          65.1218   84.6831   14.7001 F       1  UNL1       -0.1659
     18 F          63.8212   82.0332   14.1655 F       1  UNL1       -0.1659
     19 C          60.6905   90.6696   11.3214 C.3     1  UNL1        0.0294
     20 C          61.3854   90.1285   12.5357 C.3     1  UNL1        0.0666
     21 S          62.8520   89.8181   12.4846 S.3     1  UNL1       -0.0756
     22 C          63.6553   91.5959    9.8685 C.3     1  UNL1        0.1340
     23 N          64.2232   91.7510   11.2482 N.ar    1  UNL1       -0.2884
     24 C          63.8540   90.9338   12.4506 C.ar    1  UNL1        0.1932
     25 N          64.6627   91.4282   13.6132 N.ar    1  UNL1       -0.1221
     26 N          65.5317   92.5510   13.1293 N.ar    1  UNL1       -0.1282
     27 C          65.2601   92.7505   11.6676 C.ar    1  UNL1        0.1678
     28 C          65.9111   93.7705   10.7811 C.2     1  UNL1        0.0488
     29 C          67.0964   93.3897    9.9444 C.2     1  UNL1       -0.0121
     30 C          67.7474   94.4096    9.0578 C.3     1  UNL1        0.1133
     31 C          67.2130   95.8104    9.0080 C.2     1  UNL1        0.2500
     32 O          67.8640   96.8303    8.1215 O.2     1  UNL1       -0.2726
     33 N          66.0277   96.1911    9.8447 N.am    1  UNL1       -0.1775
     34 C          65.3767   95.1711   10.7312 C.2     1  UNL1        0.0913
@<TRIPOS>BOND
     1    22    23    1
     2    23    24   ar
     3    24    21    1
     4    21    20    1
     5    20    19    1
     6    19     1    1
     7     1     2    1
     8     2     3    1
     9     3     4    1
    10     5     4    1
    11     5     6    1
    12     6     7    1
    13     7     9    1
    14     9    10   ar
    15    10    11   ar
    16    11    12   ar
    17    12    15    1
    18    15    16    1
    19    15    17    1
    20    15    18    1
    21    12    13   ar
    22    13    14   ar
    23     5     8    1
    24    24    25   ar
    25    25    26   ar
    26    26    27   ar
    27    27    28    1
    28    28    29    2
    29    29    30    1
    30    30    31    1
    31    31    32    2
    32    31    33    1
    33    33    34    2
    34    27    23   ar
    35    34    28    1
    36     8     2    1
    37     7     5    1
    38    14     9   ar
@<TRIPOS>MOLECULE
*****
 34 38 0 0 0
SMALL
GASTEIGER

@<TRIPOS>ATOM
      1 C          59.0731   92.2386    4.8594 C.3     1  UNL1        0.0730
      2 N          59.9122   92.3802    3.6241 N.3     1  UNL1       -0.2726
      3 C          61.3775   92.0791    3.5143 C.3     1  UNL1        0.0721
      4 C          61.8041   92.3605    2.1040 C.3     1  UNL1        0.0190
      5 C          60.6024   92.8355    1.3422 C.3     1  UNL1        0.0201
      6 C          61.3111   93.0260    0.0341 C.3     1  UNL1        0.0061
      7 C          59.8458   93.3271    0.1439 C.3     1  UNL1        0.0237
      8 C          59.4331   92.8477    2.2817 C.3     1  UNL1        0.0724
      9 C          58.5630   93.7847   -0.4845 C.ar    1  UNL1       -0.0225
     10 C          57.5611   92.7764   -0.9639 C.ar    1  UNL1       -0.0043
     11 C          56.2783   93.2340   -1.5923 C.ar    1  UNL1        0.0035
     12 C          55.9973   94.6999   -1.7414 C.ar    1  UNL1        0.0714
     13 C          56.9992   95.7082   -1.2620 C.ar    1  UNL1        0.0035
     14 C          58.2820   95.2506   -0.6336 C.ar    1  UNL1       -0.0043
     15 C          54.7145   95.1575   -2.3698 C.3     1  UNL1        0.4186
     16 F          53.4316   95.6152   -2.9982 F       1  UNL1       -0.1659
     17 F          55.2804   94.8760   -3.7301 F       1  UNL1       -0.1659
     18 F          54.1486   95.4391   -1.0095 F       1  UNL1       -0.1659
     19 C          58.6720   90.8761    5.3415 C.3     1  UNL1        0.0294
     20 C          59.6573   90.0231    6.0843 C.3     1  UNL1        0.0666
     21 S          59.1805   89.0820    7.1506 S.3     1  UNL1       -0.0756
     22 C          60.0679   85.9733    7.5958 C.3     1  UNL1        0.1340
     23 N          60.5462   87.1497    8.3942 N.ar    1  UNL1       -0.2884
     24 C          60.1383   88.5786    8.1895 C.ar    1  UNL1        0.1932
     25 N          60.8563   89.4158    9.2061 N.ar    1  UNL1       -0.1221
     26 N          61.7079   88.5044   10.0391 N.ar    1  UNL1       -0.1282
     27 C          61.5163   87.1038    9.5374 C.ar    1  UNL1        0.1678
     28 C          62.1785   85.8734   10.0829 C.2     1  UNL1        0.0488
     29 C          63.0493   85.0342    9.1955 C.2     1  UNL1       -0.0121
     30 C          63.7115   83.8038    9.7411 C.3     1  UNL1        0.1133
     31 C          63.5028   83.4127   11.1742 C.2     1  UNL1        0.2500
     32 O          64.1650   82.1823   11.7197 O.2     1  UNL1       -0.2726
     33 N          62.6321   84.2519   12.0616 N.am    1  UNL1       -0.1775
     34 C          61.9699   85.4823   11.5159 C.2     1  UNL1        0.0913
@<TRIPOS>BOND
     1    22    23    1
     2    23    24   ar
     3    24    21    1
     4    21    20    1
     5    20    19    1
     6    19     1    1
     7     1     2    1
     8     2     3    1
     9     3     4    1
    10     5     4    1
    11     5     6    1
    12     6     7    1
    13     7     9    1
    14     9    10   ar
    15    10    11   ar
    16    11    12   ar
    17    12    15    1
    18    15    16    1
    19    15    17    1
    20    15    18    1
    21    12    13   ar
    22    13    14   ar
    23     5     8    1
    24    24    25   ar
    25    25    26   ar
    26    26    27   ar
    27    27    28    1
    28    28    29    2
    29    29    30    1
    30    30    31    1
    31    31    32    2
    32    31    33    1
    33    33    34    2
    34    27    23   ar
    35    34    28    1
    36     8     2    1
    37     7     5    1
    38    14     9   ar
