@<TRIPOS>MOLECULE
*****
 24 25 0 0 0
SMALL
GASTEIGER

@<TRIPOS>ATOM
      1 C          66.3763   92.9370   11.4560 C.ar    1  UNL1        0.1753
      2 C          65.2598   92.4053   10.6071 C.ar    1  UNL1        0.0403
      3 C          64.1314   91.6470   11.2409 C.ar    1  UNL1        0.0063
      4 C          64.1195   91.4204   12.7236 C.ar    1  UNL1        0.0403
      5 C          65.2359   91.9521   13.5725 C.ar    1  UNL1        0.1754
      6 C          66.3644   92.7103   12.9387 C.ar    1  UNL1        0.2059
      7 C          63.0149   91.1154   10.3918 C.2     1  UNL1        0.0035
      8 C          61.9279   90.2894   11.0134 C.2     1  UNL1        0.0420
      9 C          60.8114   89.7578   10.1645 C.2     1  UNL1        0.1957
     10 O          59.5444   90.5461   10.0119 O.2     1  UNL1       -0.2866
     11 C          60.9619   88.4378    9.4681 C.ar    1  UNL1        0.0420
     12 C          62.1803   87.5970    9.7096 C.ar    1  UNL1        0.0239
     13 C          62.3308   86.2769    9.0133 C.ar    1  UNL1        0.0990
     14 N          61.2627   85.7977    8.0754 N.ar    1  UNL1       -0.2423
     15 C          60.0442   86.6385    7.8338 C.ar    1  UNL1        0.0990
     16 C          59.8938   87.9586    8.5302 C.ar    1  UNL1        0.0239
     17 O          65.2240   91.7255   15.0553 O.3     1  UNL1       -0.4683
     18 C          64.0596   91.0328   15.6988 C.3     1  UNL1        0.2526
     19 O          67.5048   93.6952   10.8223 O.3     1  UNL1       -0.4723
     20 C          68.6919   92.3706    8.9285 C.3     1  UNL1        0.0512
     21 C          67.8126   93.5042    9.3667 C.3     1  UNL1        0.2057
     22 O          67.4809   93.2420   13.7878 O.3     1  UNL1       -0.4695
     23 C          68.3723   92.2942   14.5341 C.3     1  UNL1        0.2058
     24 C          68.5236   92.4205   16.0211 C.3     1  UNL1        0.0512
@<TRIPOS>BOND
     1    20    21    1
     2    21    19    1
     3    19     1    1
     4     1     2   ar
     5     2     3   ar
     6     3     7    1
     7     7     8    2
     8     8     9    1
     9     9    10    2
    10     9    11    1
    11    11    12   ar
    12    12    13   ar
    13    13    14   ar
    14    14    15   ar
    15    15    16   ar
    16     3     4   ar
    17     4     5   ar
    18     5    17    1
    19    17    18    1
    20     5     6   ar
    21     6    22    1
    22    22    23    1
    23    23    24    1
    24     6     1   ar
    25    16    11   ar
@<TRIPOS>MOLECULE
*****
 24 25 0 0 0
SMALL
GASTEIGER

@<TRIPOS>ATOM
      1 C          65.3494   91.6024   13.5144 C.ar    1  UNL1        0.1753
      2 C          64.1617   91.1991   12.6918 C.ar    1  UNL1        0.0403
      3 C          64.0877   91.5820   11.2433 C.ar    1  UNL1        0.0063
      4 C          65.2013   92.3681   10.6175 C.ar    1  UNL1        0.0403
      5 C          66.3890   92.7714   11.4401 C.ar    1  UNL1        0.1754
      6 C          66.4630   92.3885   12.8886 C.ar    1  UNL1        0.2059
      7 C          62.8999   91.1787   10.4207 C.2     1  UNL1        0.0035
      8 C          62.0480   90.0213   10.8506 C.2     1  UNL1        0.0420
      9 C          60.8603   89.6180   10.0280 C.2     1  UNL1        0.1957
     10 O          59.6729   90.5291    9.9281 O.2     1  UNL1       -0.2866
     11 C          60.8599   88.3035    9.3054 C.ar    1  UNL1        0.0420
     12 C          59.7029   87.9312    8.4265 C.ar    1  UNL1        0.0239
     13 C          59.7025   86.6167    7.7039 C.ar    1  UNL1        0.0990
     14 N          60.8592   85.6746    7.8601 N.ar    1  UNL1       -0.2423
     15 C          62.0163   86.0469    8.7390 C.ar    1  UNL1        0.0990
     16 C          62.0167   87.3614    9.4617 C.ar    1  UNL1        0.0239
     17 O          67.5028   93.5576   10.8143 O.3     1  UNL1       -0.4683
     18 C          67.2539   94.3437    9.5614 C.3     1  UNL1        0.2526
     19 O          65.4234   91.2195   14.9628 O.3     1  UNL1       -0.4723
     20 C          63.4943   89.8182   15.9948 C.3     1  UNL1        0.0512
     21 C          64.1699   91.1406   15.7827 C.3     1  UNL1        0.2057
     22 O          67.6508   92.7918   13.7112 O.3     1  UNL1       -0.4695
     23 C          67.4642   93.6488   14.9281 C.3     1  UNL1        0.2058
     24 C          68.5447   93.7231   15.9658 C.3     1  UNL1        0.0512
@<TRIPOS>BOND
     1    20    21    1
     2    21    19    1
     3    19     1    1
     4     1     2   ar
     5     2     3   ar
     6     3     7    1
     7     7     8    2
     8     8     9    1
     9     9    10    2
    10     9    11    1
    11    11    12   ar
    12    12    13   ar
    13    13    14   ar
    14    14    15   ar
    15    15    16   ar
    16     3     4   ar
    17     4     5   ar
    18     5    17    1
    19    17    18    1
    20     5     6   ar
    21     6    22    1
    22    22    23    1
    23    23    24    1
    24     6     1   ar
    25    16    11   ar
@<TRIPOS>MOLECULE
*****
 24 25 0 0 0
SMALL
GASTEIGER

@<TRIPOS>ATOM
      1 C          63.6952   85.0936   13.6802 C.ar    1  UNL1        0.1753
      2 C          64.2169   86.2512   14.4788 C.ar    1  UNL1        0.0403
      3 C          64.0316   87.6526   13.9772 C.ar    1  UNL1        0.0063
      4 C          63.3245   87.8965   12.6771 C.ar    1  UNL1        0.0403
      5 C          62.8028   86.7390   11.8785 C.ar    1  UNL1        0.1754
      6 C          62.9881   85.3375   12.3800 C.ar    1  UNL1        0.2059
      7 C          64.5533   88.8102   14.7759 C.2     1  UNL1        0.0035
      8 C          63.8872   90.1506   14.6770 C.2     1  UNL1        0.0420
      9 C          64.4089   91.3081   15.4757 C.2     1  UNL1        0.1957
     10 O          63.5643   91.9149   16.5567 O.2     1  UNL1       -0.2866
     11 C          65.7753   91.8590   15.1933 C.ar    1  UNL1        0.0420
     12 C          66.4881   92.6676   16.2363 C.ar    1  UNL1        0.0239
     13 C          67.8544   93.2185   15.9540 C.ar    1  UNL1        0.0990
     14 N          68.5079   92.9607   14.6287 N.ar    1  UNL1       -0.2423
     15 C          67.7951   92.1519   13.5856 C.ar    1  UNL1        0.0990
     16 C          66.4287   91.6011   13.8679 C.ar    1  UNL1        0.0239
     17 O          62.0956   86.9828   10.5782 O.3     1  UNL1       -0.4683
     18 C          62.0551   88.3638    9.9940 C.3     1  UNL1        0.2526
     19 O          63.8805   83.6922   14.1818 O.3     1  UNL1       -0.4723
     20 C          62.0148   81.8842   14.1897 C.3     1  UNL1        0.0512
     21 C          62.7542   82.9909   14.8814 C.3     1  UNL1        0.2057
     22 O          62.4663   84.1799   11.5814 O.3     1  UNL1       -0.4695
     23 C          63.3141   83.5681   10.5057 C.3     1  UNL1        0.2058
     24 C          64.2811   82.4728   10.8450 C.3     1  UNL1        0.0512
@<TRIPOS>BOND
     1    20    21    1
     2    21    19    1
     3    19     1    1
     4     1     2   ar
     5     2     3   ar
     6     3     7    1
     7     7     8    2
     8     8     9    1
     9     9    10    2
    10     9    11    1
    11    11    12   ar
    12    12    13   ar
    13    13    14   ar
    14    14    15   ar
    15    15    16   ar
    16     3     4   ar
    17     4     5   ar
    18     5    17    1
    19    17    18    1
    20     5     6   ar
    21     6    22    1
    22    22    23    1
    23    23    24    1
    24     6     1   ar
    25    16    11   ar
@<TRIPOS>MOLECULE
*****
 24 25 0 0 0
SMALL
GASTEIGER

@<TRIPOS>ATOM
      1 C          65.7226   91.7647   13.7650 C.ar    1  UNL1        0.1753
      2 C          65.3705   90.5620   14.5891 C.ar    1  UNL1        0.0403
      3 C          64.2957   89.6238   14.1258 C.ar    1  UNL1        0.0063
      4 C          63.5730   89.8884   12.8383 C.ar    1  UNL1        0.0403
      5 C          63.9252   91.0912   12.0141 C.ar    1  UNL1        0.1754
      6 C          65.0000   92.0293   12.4775 C.ar    1  UNL1        0.2059
      7 C          63.9435   88.4210   14.9501 C.2     1  UNL1        0.0035
      8 C          64.2789   87.0463   14.4523 C.2     1  UNL1        0.0420
      9 C          63.9268   85.8436   15.2765 C.2     1  UNL1        0.1957
     10 O          63.8225   85.9610   16.7683 O.2     1  UNL1       -0.2866
     11 C          63.6791   84.5233   14.6089 C.ar    1  UNL1        0.0420
     12 C          64.5446   84.0877   13.4639 C.ar    1  UNL1        0.0239
     13 C          64.2969   82.7675   12.7964 C.ar    1  UNL1        0.0990
     14 N          63.1836   81.8829   13.2739 N.ar    1  UNL1       -0.2423
     15 C          62.3180   82.3185   14.4189 C.ar    1  UNL1        0.0990
     16 C          62.5658   83.6387   15.0864 C.ar    1  UNL1        0.0239
     17 O          63.2025   91.3558   10.7266 O.3     1  UNL1       -0.4683
     18 C          62.1919   90.3711   10.2176 C.3     1  UNL1        0.2526
     19 O          66.7974   92.7029   14.2283 O.3     1  UNL1       -0.4723
     20 C          68.5062   92.4724   16.1717 C.3     1  UNL1        0.0512
     21 C          67.1257   92.8049   15.6883 C.3     1  UNL1        0.2057
     22 O          65.3521   93.2321   11.6532 O.3     1  UNL1       -0.4695
     23 C          66.0878   93.0637   10.3569 C.3     1  UNL1        0.2058
     24 C          67.4518   92.4400   10.3442 C.3     1  UNL1        0.0512
@<TRIPOS>BOND
     1    20    21    1
     2    21    19    1
     3    19     1    1
     4     1     2   ar
     5     2     3   ar
     6     3     7    1
     7     7     8    2
     8     8     9    1
     9     9    10    2
    10     9    11    1
    11    11    12   ar
    12    12    13   ar
    13    13    14   ar
    14    14    15   ar
    15    15    16   ar
    16     3     4   ar
    17     4     5   ar
    18     5    17    1
    19    17    18    1
    20     5     6   ar
    21     6    22    1
    22    22    23    1
    23    23    24    1
    24     6     1   ar
    25    16    11   ar
@<TRIPOS>MOLECULE
*****
 24 25 0 0 0
SMALL
GASTEIGER

@<TRIPOS>ATOM
      1 C          62.2783   85.9274   11.3585 C.ar    1  UNL1        0.1753
      2 C          62.6506   87.3305   11.7363 C.ar    1  UNL1        0.0403
      3 C          63.4684   87.5836   12.9680 C.ar    1  UNL1        0.0063
      4 C          63.9140   86.4337   13.8219 C.ar    1  UNL1        0.0403
      5 C          63.5417   85.0307   13.4441 C.ar    1  UNL1        0.1754
      6 C          62.7239   84.7775   12.2124 C.ar    1  UNL1        0.2059
      7 C          63.8407   88.9868   13.3458 C.2     1  UNL1        0.0035
      8 C          63.8493   89.3979   14.7883 C.2     1  UNL1        0.0420
      9 C          64.2216   90.8009   15.1661 C.2     1  UNL1        0.1957
     10 O          63.5259   91.4797   16.3086 O.2     1  UNL1       -0.2866
     11 C          65.2895   91.5253   14.4014 C.ar    1  UNL1        0.0420
     12 C          64.9972   92.0644   13.0326 C.ar    1  UNL1        0.0239
     13 C          66.0651   92.7888   12.2679 C.ar    1  UNL1        0.0990
     14 N          67.4255   92.9740   12.8721 N.ar    1  UNL1       -0.2423
     15 C          67.7179   92.4349   14.2410 C.ar    1  UNL1        0.0990
     16 C          66.6500   91.7106   15.0057 C.ar    1  UNL1        0.0239
     17 O          63.9873   83.8807   14.2980 O.3     1  UNL1       -0.4683
     18 C          63.1224   83.4063   15.4279 C.3     1  UNL1        0.2526
     19 O          61.4604   85.6742   10.1269 O.3     1  UNL1       -0.4723
     20 C          62.8908   85.2610    7.9977 C.3     1  UNL1        0.0512
     21 C          61.9593   86.1314    8.7882 C.3     1  UNL1        0.2057
     22 O          62.3516   83.3743   11.8346 O.3     1  UNL1       -0.4695
     23 C          63.3958   82.4394   11.3003 C.3     1  UNL1        0.2058
     24 C          64.4669   82.9551   10.3857 C.3     1  UNL1        0.0512
@<TRIPOS>BOND
     1    20    21    1
     2    21    19    1
     3    19     1    1
     4     1     2   ar
     5     2     3   ar
     6     3     7    1
     7     7     8    2
     8     8     9    1
     9     9    10    2
    10     9    11    1
    11    11    12   ar
    12    12    13   ar
    13    13    14   ar
    14    14    15   ar
    15    15    16   ar
    16     3     4   ar
    17     4     5   ar
    18     5    17    1
    19    17    18    1
    20     5     6   ar
    21     6    22    1
    22    22    23    1
    23    23    24    1
    24     6     1   ar
    25    16    11   ar
@<TRIPOS>MOLECULE
*****
 24 25 0 0 0
SMALL
GASTEIGER

@<TRIPOS>ATOM
      1 C          63.8846   91.0870   12.0511 C.ar    1  UNL1        0.1753
      2 C          63.5490   89.8729   12.8656 C.ar    1  UNL1        0.0403
      3 C          64.3122   89.5789   14.1229 C.ar    1  UNL1        0.0063
      4 C          65.4110   90.4988   14.5659 C.ar    1  UNL1        0.0403
      5 C          65.7465   91.7129   13.7515 C.ar    1  UNL1        0.1754
      6 C          64.9833   92.0070   12.4941 C.ar    1  UNL1        0.2059
      7 C          63.9766   88.3647   14.9374 C.2     1  UNL1        0.0035
      8 C          64.3100   86.9976   14.4180 C.2     1  UNL1        0.0420
      9 C          63.9744   85.7834   15.2324 C.2     1  UNL1        0.1957
     10 O          63.9399   85.8705   16.7295 O.2     1  UNL1       -0.2866
     11 C          63.6734   84.4822   14.5497 C.ar    1  UNL1        0.0420
     12 C          64.4781   84.0569   13.3574 C.ar    1  UNL1        0.0239
     13 C          64.1770   82.7556   12.6748 C.ar    1  UNL1        0.0990
     14 N          63.0712   81.8796   13.1844 N.ar    1  UNL1       -0.2423
     15 C          62.2665   82.3048   14.3767 C.ar    1  UNL1        0.0990
     16 C          62.5675   83.6061   15.0594 C.ar    1  UNL1        0.0239
     17 O          66.8454   92.6330   14.1944 O.3     1  UNL1       -0.4683
     18 C          67.1943   92.7386   15.6494 C.3     1  UNL1        0.2526
     19 O          63.1213   91.3811   10.7937 O.3     1  UNL1       -0.4723
     20 C          60.8466   90.1916   10.3932 C.3     1  UNL1        0.0512
     21 C          62.3198   90.2993   10.1325 C.3     1  UNL1        0.2057
     22 O          65.3189   93.2212   11.6796 O.3     1  UNL1       -0.4695
     23 C          66.1353   93.0831   10.4288 C.3     1  UNL1        0.2058
     24 C          67.4665   92.3934   10.4744 C.3     1  UNL1        0.0512
@<TRIPOS>BOND
     1    20    21    1
     2    21    19    1
     3    19     1    1
     4     1     2   ar
     5     2     3   ar
     6     3     7    1
     7     7     8    2
     8     8     9    1
     9     9    10    2
    10     9    11    1
    11    11    12   ar
    12    12    13   ar
    13    13    14   ar
    14    14    15   ar
    15    15    16   ar
    16     3     4   ar
    17     4     5   ar
    18     5    17    1
    19    17    18    1
    20     5     6   ar
    21     6    22    1
    22    22    23    1
    23    23    24    1
    24     6     1   ar
    25    16    11   ar
@<TRIPOS>MOLECULE
*****
 24 25 0 0 0
SMALL
GASTEIGER

@<TRIPOS>ATOM
      1 C          61.7588   86.9751   10.5903 C.ar    1  UNL1        0.1753
      2 C          62.6346   87.9787   11.2799 C.ar    1  UNL1        0.0403
      3 C          62.4526   89.4432   11.0111 C.ar    1  UNL1        0.0063
      4 C          61.3949   89.9040   10.0526 C.ar    1  UNL1        0.0403
      5 C          60.5191   88.9003    9.3629 C.ar    1  UNL1        0.1754
      6 C          60.7011   87.4359    9.6318 C.ar    1  UNL1        0.2059
      7 C          63.3285   90.4468   11.7008 C.2     1  UNL1        0.0035
      8 C          64.1629   91.3953   10.8920 C.2     1  UNL1        0.0420
      9 C          65.0387   92.3990   11.5817 C.2     1  UNL1        0.1957
     10 O          64.9455   92.5801   13.0678 O.2     1  UNL1       -0.2866
     11 C          66.0078   93.2215   10.7852 C.ar    1  UNL1        0.0420
     12 C          67.1779   92.5631   10.1165 C.ar    1  UNL1        0.0239
     13 C          68.1470   93.3857    9.3200 C.ar    1  UNL1        0.0990
     14 N          67.9459   94.8666    9.1924 N.ar    1  UNL1       -0.2423
     15 C          66.7758   95.5251    9.8612 C.ar    1  UNL1        0.0990
     16 C          65.8067   94.7025   10.6576 C.ar    1  UNL1        0.0239
     17 O          59.4613   89.3611    8.4043 O.3     1  UNL1       -0.4683
     18 C          59.7284   89.3453    6.9284 C.3     1  UNL1        0.2526
     19 O          61.9408   85.5106   10.8591 O.3     1  UNL1       -0.4723
     20 C          62.6832   83.5912   12.4449 C.3     1  UNL1        0.0512
     21 C          62.5669   85.0561   12.1442 C.3     1  UNL1        0.2057
     22 O          59.8253   86.4322    8.9420 O.3     1  UNL1       -0.4695
     23 C          60.1798   85.9462    7.5680 C.3     1  UNL1        0.2058
     24 C          61.4994   85.2749    7.3272 C.3     1  UNL1        0.0512
@<TRIPOS>BOND
     1    20    21    1
     2    21    19    1
     3    19     1    1
     4     1     2   ar
     5     2     3   ar
     6     3     7    1
     7     7     8    2
     8     8     9    1
     9     9    10    2
    10     9    11    1
    11    11    12   ar
    12    12    13   ar
    13    13    14   ar
    14    14    15   ar
    15    15    16   ar
    16     3     4   ar
    17     4     5   ar
    18     5    17    1
    19    17    18    1
    20     5     6   ar
    21     6    22    1
    22    22    23    1
    23    23    24    1
    24     6     1   ar
    25    16    11   ar
@<TRIPOS>MOLECULE
*****
 24 25 0 0 0
SMALL
GASTEIGER

@<TRIPOS>ATOM
      1 C          60.4349   86.3598    8.1168 C.ar    1  UNL1        0.1753
      2 C          61.2289   85.7195    9.2165 C.ar    1  UNL1        0.0403
      3 C          61.5234   86.4849   10.4725 C.ar    1  UNL1        0.0063
      4 C          61.0239   87.8906   10.6287 C.ar    1  UNL1        0.0403
      5 C          60.2299   88.5309    9.5289 C.ar    1  UNL1        0.1754
      6 C          59.9354   87.7655    8.2730 C.ar    1  UNL1        0.2059
      7 C          62.3174   85.8445   11.5723 C.2     1  UNL1        0.0035
      8 C          62.8002   84.4320   11.4242 C.2     1  UNL1        0.0420
      9 C          63.5941   83.7916   12.5239 C.2     1  UNL1        0.1957
     10 O          64.3955   82.5540   12.2477 O.2     1  UNL1       -0.2866
     11 C          63.5868   84.3887   13.9000 C.ar    1  UNL1        0.0420
     12 C          62.4741   84.0646   14.8522 C.ar    1  UNL1        0.0239
     13 C          62.4667   84.6617   16.2282 C.ar    1  UNL1        0.0990
     14 N          63.5721   85.5829   16.6520 N.ar    1  UNL1       -0.2423
     15 C          64.6848   85.9071   15.6997 C.ar    1  UNL1        0.0990
     16 C          64.6922   85.3100   14.3237 C.ar    1  UNL1        0.0239
     17 O          59.7304   89.9367    9.6851 O.3     1  UNL1       -0.4683
     18 C          59.7404   90.5906   11.0350 C.3     1  UNL1        0.2526
     19 O          60.1404   85.5944    6.8608 O.3     1  UNL1       -0.4723
     20 C          62.3403   84.5790    5.9231 C.3     1  UNL1        0.0512
     21 C          60.9682   84.3964    6.5010 C.3     1  UNL1        0.2057
     22 O          59.1414   88.4059    7.1731 O.3     1  UNL1       -0.4695
     23 C          59.6637   89.6340    6.4883 C.3     1  UNL1        0.2058
     24 C          58.7442   90.4762    5.6545 C.3     1  UNL1        0.0512
@<TRIPOS>BOND
     1    20    21    1
     2    21    19    1
     3    19     1    1
     4     1     2   ar
     5     2     3   ar
     6     3     7    1
     7     7     8    2
     8     8     9    1
     9     9    10    2
    10     9    11    1
    11    11    12   ar
    12    12    13   ar
    13    13    14   ar
    14    14    15   ar
    15    15    16   ar
    16     3     4   ar
    17     4     5   ar
    18     5    17    1
    19    17    18    1
    20     5     6   ar
    21     6    22    1
    22    22    23    1
    23    23    24    1
    24     6     1   ar
    25    16    11   ar
@<TRIPOS>MOLECULE
*****
 24 25 0 0 0
SMALL
GASTEIGER

@<TRIPOS>ATOM
      1 C          63.4782   85.0985   14.3234 C.ar    1  UNL1        0.1753
      2 C          63.3412   86.4612   13.7115 C.ar    1  UNL1        0.0403
      3 C          62.9826   86.5997   12.2616 C.ar    1  UNL1        0.0063
      4 C          62.7610   85.3756   11.4236 C.ar    1  UNL1        0.0403
      5 C          62.8980   84.0130   12.0354 C.ar    1  UNL1        0.1754
      6 C          63.2566   83.8744   13.4853 C.ar    1  UNL1        0.2059
      7 C          62.8456   87.9624   11.6498 C.2     1  UNL1        0.0035
      8 C          63.3685   89.1665   12.3757 C.2     1  UNL1        0.0420
      9 C          63.2315   90.5291   11.7639 C.2     1  UNL1        0.1957
     10 O          61.9914   90.8869   10.9995 O.2     1  UNL1       -0.2866
     11 C          64.3345   91.5341   11.9165 C.ar    1  UNL1        0.0420
     12 C          65.0009   91.7200   13.2474 C.ar    1  UNL1        0.0239
     13 C          66.1040   92.7250   13.4000 C.ar    1  UNL1        0.0990
     14 N          66.5406   93.5441   12.2218 N.ar    1  UNL1       -0.2423
     15 C          65.8743   93.3582   10.8908 C.ar    1  UNL1        0.0990
     16 C          64.7712   92.3532   10.7382 C.ar    1  UNL1        0.0239
     17 O          62.6764   82.7887   11.1973 O.3     1  UNL1       -0.4683
     18 C          63.8273   82.1595   10.4698 C.3     1  UNL1        0.2526
     19 O          63.8369   84.9600   15.7733 O.3     1  UNL1       -0.4723
     20 C          62.8475   86.6420   17.4885 C.3     1  UNL1        0.0512
     21 C          62.8270   85.2940   16.8309 C.3     1  UNL1        0.2057
     22 O          63.3936   82.5117   14.0971 O.3     1  UNL1       -0.4695
     23 C          62.1869   81.6344   14.2520 C.3     1  UNL1        0.2058
     24 C          62.1348   80.3023   13.5644 C.3     1  UNL1        0.0512
@<TRIPOS>BOND
     1    20    21    1
     2    21    19    1
     3    19     1    1
     4     1     2   ar
     5     2     3   ar
     6     3     7    1
     7     7     8    2
     8     8     9    1
     9     9    10    2
    10     9    11    1
    11    11    12   ar
    12    12    13   ar
    13    13    14   ar
    14    14    15   ar
    15    15    16   ar
    16     3     4   ar
    17     4     5   ar
    18     5    17    1
    19    17    18    1
    20     5     6   ar
    21     6    22    1
    22    22    23    1
    23    23    24    1
    24     6     1   ar
    25    16    11   ar
