@<TRIPOS>MOLECULE
*****
 65 72 0 0 0
SMALL
GASTEIGER

@<TRIPOS>ATOM
      1 N          58.3745   94.9821   -6.0244 N.3     1  UNL1       -0.1862
      2 C          59.3728   94.3753   -6.9652 C.3     1  UNL1        0.1775
      3 C          60.8090   94.2442   -6.5526 C.2     1  UNL1        0.2452
      4 O          61.8072   93.6374   -7.4935 O.2     1  UNL1       -0.2732
      5 N          61.2469   94.7199   -5.1991 N.am    1  UNL1       -0.2541
      6 C          62.6830   94.5888   -4.7865 C.3     1  UNL1        0.1577
      7 C          63.1209   95.0644   -3.4331 C.2     1  UNL1        0.2445
      8 O          64.5571   94.9333   -3.0204 O.2     1  UNL1       -0.2731
      9 N          62.1226   95.6713   -2.4921 N.am    1  UNL1       -0.2705
     10 C          60.6865   95.8024   -2.9047 C.3     1  UNL1        0.1359
     11 C          60.2486   95.3267   -4.2583 C.3     1  UNL1        0.1908
     12 N          58.8125   95.4578   -4.6709 N.am    1  UNL1       -0.1863
     13 C          57.8142   96.0647   -3.7300 C.2     1  UNL1        0.3191
     14 O          58.2521   96.5403   -2.3765 O.2     1  UNL1       -0.2512
     15 N          56.3780   96.1958   -4.1426 N.am    1  UNL1       -0.2836
     16 H          56.0906   95.8836   -5.0310 H       1  UNL1        0.1513
     17 C          56.9384   95.1133   -6.4370 C.3     1  UNL1        0.1188
     18 C          56.1465   92.6772   -6.0028 C.2     1  UNL1       -0.0034
     19 C          56.1688   93.9008   -6.8702 C.2     1  UNL1       -0.0071
     20 C          63.6813   93.9820   -5.7274 C.3     1  UNL1        0.0556
     21 C          64.9684   94.6954   -6.0175 C.ar    1  UNL1       -0.0198
     22 C          66.0912   93.9699   -6.6979 C.ar    1  UNL1       -0.0011
     23 C          67.3784   94.6833   -6.9881 C.ar    1  UNL1        0.0363
     24 C          67.5428   96.1223   -6.5978 C.ar    1  UNL1        0.1337
     25 O          68.8300   96.8357   -6.8880 O.3     1  UNL1       -0.5055
     26 C          66.4200   96.8479   -5.9174 C.ar    1  UNL1        0.0363
     27 C          65.1328   96.1344   -5.6272 C.ar    1  UNL1       -0.0011
     28 H          69.5313   96.3825   -7.3130 H       1  UNL1        0.2922
     29 C          62.5606   96.1470   -1.1387 C.3     1  UNL1        0.1217
     30 C          61.7377   95.8224    0.0729 C.ar    1  UNL1        0.0135
     31 C          60.8160   96.8544    0.6519 C.ar    1  UNL1       -0.0012
     32 C          59.9932   96.5299    1.8633 C.ar    1  UNL1       -0.0002
     33 C          60.0921   95.1734    2.4957 C.ar    1  UNL1        0.0015
     34 C          61.0139   94.1413    1.9167 C.ar    1  UNL1        0.0170
     35 C          61.3201   92.7295    2.3204 C.ar    1  UNL1        0.0201
     36 C          62.3321   92.1815    1.3584 C.ar    1  UNL1        0.0760
     37 N          62.6514   93.2546    0.3602 N.ar    1  UNL1       -0.3242
     38 C          63.6160   93.1371   -0.7824 C.3     1  UNL1        0.1305
     39 C          61.8367   94.4658    0.7053 C.ar    1  UNL1        0.0575
     40 C          60.7196   91.9947    3.4821 C.ar    1  UNL1        0.0208
     41 C          59.2632   92.1585    3.8014 C.ar    1  UNL1        0.0045
     42 C          58.6628   91.4237    4.9631 C.ar    1  UNL1        0.0345
     43 C          59.5188   90.5251    5.8055 C.ar    1  UNL1        0.1353
     44 N          60.9753   90.3613    5.4863 N.ar    1  UNL1       -0.2290
     45 C          61.5756   91.0961    4.3246 C.ar    1  UNL1        0.1003
     46 N          58.9184   89.7903    6.9672 N.am    1  UNL1       -0.2536
     47 C          59.7926   89.3272    8.0947 C.2     1  UNL1        0.3058
     48 O          61.2674   89.5988    8.0604 O.2     1  UNL1       -0.2524
     49 N          59.1921   88.5924    9.2563 N.am    1  UNL1       -0.2846
     50 H          57.9504   89.6120    6.9897 H       1  UNL1        0.1578
     51 H          58.2241   88.4141    9.2788 H       1  UNL1        0.1513
     52 C          60.0664   88.1293   10.3837 C.3     1  UNL1        0.1177
     53 C          61.0448   87.0136   10.1646 C.ar    1  UNL1       -0.0025
     54 C          61.7142   86.3616   11.3380 C.ar    1  UNL1       -0.0026
     55 C          62.6925   85.2460   11.1187 C.ar    1  UNL1       -0.0003
     56 C          63.0015   84.7822    9.7261 C.ar    1  UNL1       -0.0000
     57 C          62.3321   85.4341    8.5527 C.ar    1  UNL1       -0.0003
     58 C          61.3538   86.5498    8.7720 C.ar    1  UNL1       -0.0026
     59 C          55.3798   96.8026   -3.2018 C.3     1  UNL1        0.1177
     60 C          53.9114   96.6083   -3.4387 C.ar    1  UNL1       -0.0025
     61 C          53.3909   96.4573   -4.8374 C.ar    1  UNL1       -0.0026
     62 C          51.9225   96.2631   -5.0743 C.ar    1  UNL1       -0.0003
     63 C          50.9746   96.2198   -3.9126 C.ar    1  UNL1       -0.0000
     64 C          51.4951   96.3708   -2.5139 C.ar    1  UNL1       -0.0003
     65 C          52.9635   96.5650   -2.2769 C.ar    1  UNL1       -0.0026
@<TRIPOS>BOND
     1    18    19    2
     2    19    17    1
     3    17     1    1
     4     1     2    1
     5     2     3    1
     6     3     4    2
     7     3     5   am
     8     5     6    1
     9     6    20    1
    10    20    21    1
    11    21    22   ar
    12    22    23   ar
    13    23    24   ar
    14    24    25    1
    15    24    26   ar
    16    26    27   ar
    17     6     7    1
    18     7     8    2
    19     7     9   am
    20     9    29    1
    21    29    30    1
    22    30    31   ar
    23    31    32   ar
    24    32    33   ar
    25    33    34   ar
    26    34    35   ar
    27    35    40    1
    28    40    41   ar
    29    41    42   ar
    30    42    43   ar
    31    43    46    1
    32    46    47   am
    33    47    48    2
    34    47    49   am
    35    49    52    1
    36    52    53    1
    37    53    54   ar
    38    54    55   ar
    39    55    56   ar
    40    56    57   ar
    41    57    58   ar
    42    43    44   ar
    43    44    45   ar
    44    35    36   ar
    45    36    37   ar
    46    37    38    1
    47    37    39   ar
    48     9    10    1
    49    11    10    1
    50    11    12    1
    51    12    13   am
    52    13    14    2
    53    13    15   am
    54    15    59    1
    55    59    60    1
    56    60    61   ar
    57    61    62   ar
    58    62    63   ar
    59    63    64   ar
    60    64    65   ar
    61    12     1    1
    62    65    60   ar
    63    11     5    1
    64    27    21   ar
    65    39    30   ar
    66    39    34   ar
    67    45    40   ar
    68    58    53   ar
    69    25    28    1
    70    46    50    1
    71    49    51    1
    72    15    16    1
@<TRIPOS>MOLECULE
*****
 65 72 0 0 0
SMALL
GASTEIGER

@<TRIPOS>ATOM
      1 N          62.4330   94.7476   -3.4536 N.3     1  UNL1       -0.1862
      2 C          61.4231   94.2673   -4.4533 C.3     1  UNL1        0.1775
      3 C          60.1089   93.7155   -3.9859 C.2     1  UNL1        0.2452
      4 O          59.0990   93.2352   -4.9857 O.2     1  UNL1       -0.2732
      5 N          59.8045   93.6442   -2.5189 N.am    1  UNL1       -0.2541
      6 C          58.4903   93.0925   -2.0516 C.3     1  UNL1        0.1577
      7 C          58.1859   93.0211   -0.5845 C.2     1  UNL1        0.2445
      8 O          56.8717   92.4694   -0.1172 O.2     1  UNL1       -0.2731
      9 N          59.1958   93.5015    0.4152 N.am    1  UNL1       -0.2705
     10 C          60.5100   94.0532   -0.0521 C.3     1  UNL1        0.1359
     11 C          60.8144   94.1245   -1.5192 C.3     1  UNL1        0.1908
     12 N          62.1286   94.6762   -1.9866 N.am    1  UNL1       -0.1863
     13 C          63.1385   95.1566   -0.9868 C.2     1  UNL1        0.3191
     14 O          62.8341   95.0853    0.4802 O.2     1  UNL1       -0.2512
     15 N          64.4527   95.7083   -1.4541 N.am    1  UNL1       -0.2836
     16 H          64.6525   95.7552   -2.4170 H       1  UNL1        0.1513
     17 C          63.7472   95.2993   -3.9209 C.3     1  UNL1        0.1188
     18 C          64.7593   92.9704   -4.4704 C.2     1  UNL1       -0.0034
     19 C          64.6727   94.4444   -4.7348 C.2     1  UNL1       -0.0071
     20 C          57.4805   92.6121   -3.0513 C.3     1  UNL1        0.0556
     21 C          56.4519   93.5600   -3.5930 C.ar    1  UNL1       -0.0198
     22 C          56.2001   93.6294   -5.0701 C.ar    1  UNL1       -0.0011
     23 C          55.1715   94.5773   -5.6118 C.ar    1  UNL1        0.0363
     24 C          54.3947   95.4558   -4.6766 C.ar    1  UNL1        0.1337
     25 O          53.3661   96.4036   -5.2183 O.3     1  UNL1       -0.5055
     26 C          54.6465   95.3864   -3.1994 C.ar    1  UNL1        0.0363
     27 C          55.6750   94.4385   -2.6576 C.ar    1  UNL1       -0.0011
     28 H          53.2088   96.4470   -6.1410 H       1  UNL1        0.2922
     29 C          58.8914   93.4301    1.8823 C.3     1  UNL1        0.1217
     30 C          59.7734   92.6285    2.7931 C.ar    1  UNL1        0.0135
     31 C          61.2516   92.5694    2.5449 C.ar    1  UNL1       -0.0012
     32 C          62.1335   91.7679    3.4557 C.ar    1  UNL1       -0.0002
     33 C          61.5374   91.0255    4.6148 C.ar    1  UNL1        0.0015
     34 C          60.0592   91.0846    4.8630 C.ar    1  UNL1        0.0170
     35 C          59.1928   90.4617    5.9171 C.ar    1  UNL1        0.0201
     36 C          57.7754   90.8783    5.6578 C.ar    1  UNL1        0.0760
     37 N          57.7658   91.7586    4.4434 N.ar    1  UNL1       -0.3242
     38 C          56.5569   92.3990    3.8282 C.3     1  UNL1        0.1305
     39 C          59.1773   91.8861    3.9522 C.ar    1  UNL1        0.0575
     40 C          59.6616   89.5774    7.0345 C.ar    1  UNL1        0.0208
     41 C          59.2721   88.1291    7.0586 C.ar    1  UNL1        0.0045
     42 C          59.7408   87.2449    8.1759 C.ar    1  UNL1        0.0345
     43 C          60.5991   87.8090    9.2691 C.ar    1  UNL1        0.1353
     44 N          60.9887   89.2574    9.2451 N.ar    1  UNL1       -0.2290
     45 C          60.5199   90.1415    8.1277 C.ar    1  UNL1        0.1003
     46 N          61.0679   86.9248   10.3865 N.am    1  UNL1       -0.2536
     47 C          61.9954   85.7814   10.0994 C.2     1  UNL1        0.3058
     48 O          62.4542   85.5222    8.6950 O.2     1  UNL1       -0.2524
     49 N          62.4641   84.8972   11.2168 N.am    1  UNL1       -0.2846
     50 H          60.7668   87.0949   11.3082 H       1  UNL1        0.1578
     51 H          62.1630   85.0673   12.1385 H       1  UNL1        0.1513
     52 C          63.3916   83.7538   10.9297 C.3     1  UNL1        0.1177
     53 C          63.4043   82.5541   11.8300 C.ar    1  UNL1       -0.0025
     54 C          62.6834   81.3032   11.4230 C.ar    1  UNL1       -0.0026
     55 C          62.6962   80.1036   12.3233 C.ar    1  UNL1       -0.0003
     56 C          63.4297   80.1548   13.6307 C.ar    1  UNL1       -0.0000
     57 C          64.1506   81.4057   14.0377 C.ar    1  UNL1       -0.0003
     58 C          64.1378   82.6053   13.1374 C.ar    1  UNL1       -0.0026
     59 C          65.4626   96.1887   -0.4545 C.3     1  UNL1        0.1177
     60 C          65.3426   95.7861    0.9855 C.ar    1  UNL1       -0.0025
     61 C          65.3773   96.8304    2.0617 C.ar    1  UNL1       -0.0026
     62 C          65.2574   96.4278    3.5016 C.ar    1  UNL1       -0.0003
     63 C          65.1028   94.9808    3.8655 C.ar    1  UNL1       -0.0000
     64 C          65.0681   93.9364    2.7893 C.ar    1  UNL1       -0.0003
     65 C          65.1880   94.3390    1.3493 C.ar    1  UNL1       -0.0026
@<TRIPOS>BOND
     1    18    19    2
     2    19    17    1
     3    17     1    1
     4     1     2    1
     5     2     3    1
     6     3     4    2
     7     3     5   am
     8     5     6    1
     9     6    20    1
    10    20    21    1
    11    21    22   ar
    12    22    23   ar
    13    23    24   ar
    14    24    25    1
    15    24    26   ar
    16    26    27   ar
    17     6     7    1
    18     7     8    2
    19     7     9   am
    20     9    29    1
    21    29    30    1
    22    30    31   ar
    23    31    32   ar
    24    32    33   ar
    25    33    34   ar
    26    34    35   ar
    27    35    40    1
    28    40    41   ar
    29    41    42   ar
    30    42    43   ar
    31    43    46    1
    32    46    47   am
    33    47    48    2
    34    47    49   am
    35    49    52    1
    36    52    53    1
    37    53    54   ar
    38    54    55   ar
    39    55    56   ar
    40    56    57   ar
    41    57    58   ar
    42    43    44   ar
    43    44    45   ar
    44    35    36   ar
    45    36    37   ar
    46    37    38    1
    47    37    39   ar
    48     9    10    1
    49    11    10    1
    50    11    12    1
    51    12    13   am
    52    13    14    2
    53    13    15   am
    54    15    59    1
    55    59    60    1
    56    60    61   ar
    57    61    62   ar
    58    62    63   ar
    59    63    64   ar
    60    64    65   ar
    61    12     1    1
    62    65    60   ar
    63    11     5    1
    64    27    21   ar
    65    39    30   ar
    66    39    34   ar
    67    45    40   ar
    68    58    53   ar
    69    25    28    1
    70    46    50    1
    71    49    51    1
    72    15    16    1
@<TRIPOS>MOLECULE
*****
 65 72 0 0 0
SMALL
GASTEIGER

@<TRIPOS>ATOM
      1 N          62.5397   94.2204   -3.1573 N.3     1  UNL1       -0.1862
      2 C          61.4757   94.2860   -4.2125 C.3     1  UNL1        0.1775
      3 C          60.0341   94.1133   -3.8358 C.2     1  UNL1        0.2452
      4 O          58.9700   94.1790   -4.8911 O.2     1  UNL1       -0.2732
      5 N          59.6564   93.8750   -2.4038 N.am    1  UNL1       -0.2541
      6 C          58.2148   93.7023   -2.0271 C.3     1  UNL1        0.1577
      7 C          57.8372   93.4640   -0.5952 C.2     1  UNL1        0.2445
      8 O          56.3955   93.2913   -0.2185 O.2     1  UNL1       -0.2731
      9 N          58.9012   93.3983    0.4602 N.am    1  UNL1       -0.2705
     10 C          60.3428   93.5710    0.0834 C.3     1  UNL1        0.1359
     11 C          60.7204   93.8094   -1.3486 C.3     1  UNL1        0.1908
     12 N          62.1620   93.9820   -1.7253 N.am    1  UNL1       -0.1863
     13 C          63.2260   93.9164   -0.6700 C.2     1  UNL1        0.3191
     14 O          62.8484   93.6780    0.7620 O.2     1  UNL1       -0.2512
     15 N          64.6677   94.0891   -1.0467 N.am    1  UNL1       -0.2836
     16 H          64.9155   94.2455   -1.9866 H       1  UNL1        0.1513
     17 C          63.9813   94.3931   -3.5340 C.3     1  UNL1        0.1188
     18 C          65.0149   94.1966   -5.9095 C.2     1  UNL1       -0.0034
     19 C          64.3432   95.0176   -4.8488 C.2     1  UNL1       -0.0071
     20 C          57.1508   93.7680   -3.0824 C.3     1  UNL1        0.0556
     21 C          56.4491   92.5161   -3.5188 C.ar    1  UNL1       -0.0198
     22 C          56.0073   92.3620   -4.9440 C.ar    1  UNL1       -0.0011
     23 C          55.3056   91.1101   -5.3804 C.ar    1  UNL1        0.0363
     24 C          55.0457   90.0124   -4.3918 C.ar    1  UNL1        0.1337
     25 O          54.3440   88.7606   -4.8283 O.3     1  UNL1       -0.5055
     26 C          55.4875   90.1665   -2.9666 C.ar    1  UNL1        0.0363
     27 C          56.1892   91.4184   -2.5301 C.ar    1  UNL1       -0.0011
     28 H          54.0681   88.6643   -5.7185 H       1  UNL1        0.2922
     29 C          58.5235   93.1600    1.8921 C.3     1  UNL1        0.1217
     30 C          59.4751   92.4526    2.8110 C.ar    1  UNL1        0.0135
     31 C          60.9482   92.4781    2.5294 C.ar    1  UNL1       -0.0012
     32 C          61.8998   91.7708    3.4482 C.ar    1  UNL1       -0.0002
     33 C          61.3782   91.0380    4.6486 C.ar    1  UNL1        0.0015
     34 C          59.9051   91.0125    4.9302 C.ar    1  UNL1        0.0170
     35 C          59.1039   90.3776    6.0278 C.ar    1  UNL1        0.0201
     36 C          57.6572   90.6925    5.7874 C.ar    1  UNL1        0.0760
     37 N          57.5643   91.5220    4.5412 N.ar    1  UNL1       -0.3242
     38 C          56.3034   92.0595    3.9318 C.3     1  UNL1        0.1305
     39 C          58.9535   91.7198    4.0114 C.ar    1  UNL1        0.0575
     40 C          59.6530   89.5696    7.1661 C.ar    1  UNL1        0.0208
     41 C          60.5060   90.2275    8.2100 C.ar    1  UNL1        0.0045
     42 C          61.0551   89.4194    9.3482 C.ar    1  UNL1        0.0345
     43 C          60.7512   87.9536    9.4426 C.ar    1  UNL1        0.1353
     44 N          59.8983   87.2957    8.3987 N.ar    1  UNL1       -0.2290
     45 C          59.3492   88.1037    7.2605 C.ar    1  UNL1        0.1003
     46 N          61.3004   87.1456   10.5808 N.am    1  UNL1       -0.2536
     47 C          62.0501   85.8757   10.3062 C.2     1  UNL1        0.3058
     48 O          62.2507   85.4139    8.8933 O.2     1  UNL1       -0.2524
     49 N          62.5992   85.0678   11.4445 N.am    1  UNL1       -0.2846
     50 H          61.1687   87.4487   11.5082 H       1  UNL1        0.1578
     51 H          62.4675   85.3710   12.3719 H       1  UNL1        0.1513
     52 C          63.3489   83.7980   11.1698 C.3     1  UNL1        0.1177
     53 C          62.9929   82.5420   11.9085 C.ar    1  UNL1       -0.0025
     54 C          62.5452   82.6141   13.3384 C.ar    1  UNL1       -0.0026
     55 C          62.1891   81.3581   14.0770 C.ar    1  UNL1       -0.0003
     56 C          62.2808   80.0300   13.3859 C.ar    1  UNL1       -0.0000
     57 C          62.7285   79.9579   11.9561 C.ar    1  UNL1       -0.0003
     58 C          63.0845   81.2139   11.2175 C.ar    1  UNL1       -0.0026
     59 C          65.7316   94.0234    0.0085 C.3     1  UNL1        0.1177
     60 C          65.5313   94.7230    1.3202 C.ar    1  UNL1       -0.0025
     61 C          64.8979   93.9957    2.4690 C.ar    1  UNL1       -0.0026
     62 C          64.6975   94.6953    3.7807 C.ar    1  UNL1       -0.0003
     63 C          65.1305   96.1221    3.9435 C.ar    1  UNL1       -0.0000
     64 C          65.7639   96.8495    2.7947 C.ar    1  UNL1       -0.0003
     65 C          65.9643   96.1499    1.4830 C.ar    1  UNL1       -0.0026
@<TRIPOS>BOND
     1    18    19    2
     2    19    17    1
     3    17     1    1
     4     1     2    1
     5     2     3    1
     6     3     4    2
     7     3     5   am
     8     5     6    1
     9     6    20    1
    10    20    21    1
    11    21    22   ar
    12    22    23   ar
    13    23    24   ar
    14    24    25    1
    15    24    26   ar
    16    26    27   ar
    17     6     7    1
    18     7     8    2
    19     7     9   am
    20     9    29    1
    21    29    30    1
    22    30    31   ar
    23    31    32   ar
    24    32    33   ar
    25    33    34   ar
    26    34    35   ar
    27    35    40    1
    28    40    41   ar
    29    41    42   ar
    30    42    43   ar
    31    43    46    1
    32    46    47   am
    33    47    48    2
    34    47    49   am
    35    49    52    1
    36    52    53    1
    37    53    54   ar
    38    54    55   ar
    39    55    56   ar
    40    56    57   ar
    41    57    58   ar
    42    43    44   ar
    43    44    45   ar
    44    35    36   ar
    45    36    37   ar
    46    37    38    1
    47    37    39   ar
    48     9    10    1
    49    11    10    1
    50    11    12    1
    51    12    13   am
    52    13    14    2
    53    13    15   am
    54    15    59    1
    55    59    60    1
    56    60    61   ar
    57    61    62   ar
    58    62    63   ar
    59    63    64   ar
    60    64    65   ar
    61    12     1    1
    62    65    60   ar
    63    11     5    1
    64    27    21   ar
    65    39    30   ar
    66    39    34   ar
    67    45    40   ar
    68    58    53   ar
    69    25    28    1
    70    46    50    1
    71    49    51    1
    72    15    16    1
