@<TRIPOS>MOLECULE
*****
 58 65 0 0 0
SMALL
GASTEIGER

@<TRIPOS>ATOM
      1 C          62.7454   85.6942   12.8472 C.ar    1  UNL1        0.0560
      2 C          62.3672   84.4276   13.5560 C.ar    1  UNL1        0.0445
      3 C          62.7485   84.2298   14.9931 C.ar    1  UNL1        0.1729
      4 C          63.5080   85.2988   15.7215 C.ar    1  UNL1        0.1736
      5 C          63.8861   86.5654   15.0127 C.ar    1  UNL1        0.0548
      6 C          63.5048   86.7632   13.5756 C.ar    1  UNL1        0.0569
      7 N          61.3741   86.7995    9.3883 N.ar    1  UNL1       -0.1285
      8 N          62.1806   85.5932    9.0084 N.ar    1  UNL1       -0.0406
      9 N          62.7924   85.0323   10.2578 N.ar    1  UNL1       -0.1074
     10 C          62.3641   85.8920   11.4100 C.ar    1  UNL1        0.2075
     11 N          61.4875   86.9842   10.8726 N.ar    1  UNL1       -0.1253
     12 C          59.0266   89.4066    6.5701 C.ar    1  UNL1       -0.0207
     13 C          59.0214   87.9170    6.3940 C.ar    1  UNL1       -0.0026
     14 C          59.8039   87.0479    7.3335 C.ar    1  UNL1        0.0206
     15 C          60.5917   87.6685    8.4489 C.ar    1  UNL1        0.1045
     16 C          60.5969   89.1581    8.6250 C.ar    1  UNL1        0.0206
     17 C          59.8145   90.0272    7.6856 C.ar    1  UNL1       -0.0026
     18 C          58.2442   90.2756    5.6307 C.3     1  UNL1        0.0437
     19 C          58.6954   91.6796    5.3561 C.3     1  UNL1        0.0771
     20 C          63.0159   93.6104    0.3706 C.ar    1  UNL1        0.1721
     21 C          63.2111   92.6861    1.5357 C.ar    1  UNL1        0.0356
     22 C          62.0822   92.4345    2.4909 C.ar    1  UNL1       -0.0202
     23 C          60.7580   93.1071    2.2808 C.ar    1  UNL1       -0.0068
     24 C          60.5628   94.0315    1.1157 C.ar    1  UNL1        0.0368
     25 C          61.6917   94.2831    0.1606 C.ar    1  UNL1        0.1721
     26 C          59.6291   92.8555    3.2359 C.3     1  UNL1        0.0990
     27 N          59.8243   91.9312    4.4010 N.3     1  UNL1       -0.2683
     28 C          61.1485   91.2585    4.6110 C.3     1  UNL1        0.0771
     29 C          62.2774   91.5101    3.6560 C.3     1  UNL1        0.0435
     30 C          64.9973   95.0869   -0.4320 C.3     1  UNL1        0.2526
     31 O          64.1448   93.8621   -0.5845 O.3     1  UNL1       -0.4684
     32 O          61.4965   95.2075   -1.0046 O.3     1  UNL1       -0.4684
     33 C          61.0630   94.6598   -2.3320 C.3     1  UNL1        0.2526
     34 N          63.8830   88.0300   12.8667 N.am    1  UNL1       -0.2777
     35 C          63.8629   89.3364   13.6036 C.2     1  UNL1        0.2843
     36 O          63.4647   89.3760   15.0492 O.2     1  UNL1       -0.2665
     37 H          64.1444   88.0039   11.9179 H       1  UNL1        0.1553
     38 C          64.2411   90.6031   12.8948 C.ar    1  UNL1        0.2017
     39 C          63.7347   90.8662   11.5076 C.ar    1  UNL1        0.0843
     40 C          64.1128   92.1329   10.7988 C.ar    1  UNL1        0.2018
     41 O          63.6063   92.3960    9.4116 O.2     1  UNL1       -0.2864
     42 C          64.9974   93.1365   11.4773 C.ar    1  UNL1        0.0735
     43 C          65.3755   94.4033   10.7684 C.ar    1  UNL1        0.0062
     44 C          66.2601   95.4070   11.4468 C.ar    1  UNL1        0.0003
     45 C          66.7665   95.1439   12.8340 C.ar    1  UNL1        0.0031
     46 C          66.3884   93.8771   13.5428 C.ar    1  UNL1        0.0376
     47 C          65.5038   92.8734   12.8644 C.ar    1  UNL1        0.1485
     48 O          65.1257   91.6068   13.5732 O.2     1  UNL1       -0.4487
     49 O          63.8892   85.1010   17.1587 O.3     1  UNL1       -0.4683
     50 C          63.2700   85.9569   18.2235 C.3     1  UNL1        0.2526
     51 O          62.3703   82.9631   15.7019 O.3     1  UNL1       -0.4676
     52 C          62.6728   81.6341   15.0755 C.3     1  UNL1        0.2321
     53 C          63.0552   81.5574   13.6270 C.ar    1  UNL1        0.0212
     54 C          62.2652   80.6955   12.6875 C.ar    1  UNL1       -0.0007
     55 C          62.6475   80.6187   11.2390 C.ar    1  UNL1       -0.0002
     56 C          63.8200   81.4039   10.7302 C.ar    1  UNL1       -0.0000
     57 C          64.6101   82.2658   11.6699 C.ar    1  UNL1       -0.0002
     58 C          64.2277   82.3425   13.1182 C.ar    1  UNL1       -0.0007
@<TRIPOS>BOND
     1    30    31    1
     2    31    20    1
     3    20    21   ar
     4    21    22   ar
     5    22    23   ar
     6    23    24   ar
     7    24    25   ar
     8    25    32    1
     9    32    33    1
    10    23    26    1
    11    26    27    1
    12    27    19    1
    13    19    18    1
    14    18    12    1
    15    12    13   ar
    16    13    14   ar
    17    14    15   ar
    18    15     7    1
    19     7     8   ar
    20     8     9   ar
    21     9    10   ar
    22    10     1    1
    23     1     2   ar
    24     2     3   ar
    25     3    51    1
    26    51    52    1
    27    52    53    1
    28    53    54   ar
    29    54    55   ar
    30    55    56   ar
    31    56    57   ar
    32    57    58   ar
    33     3     4   ar
    34     4    49    1
    35    49    50    1
    36     4     5   ar
    37     5     6   ar
    38     6    34    1
    39    34    35   am
    40    35    36    2
    41    35    38    1
    42    38    39   ar
    43    39    40   ar
    44    40    41    2
    45    40    42   ar
    46    42    43   ar
    47    43    44   ar
    48    44    45   ar
    49    45    46   ar
    50    46    47   ar
    51    47    48   ar
    52    10    11   ar
    53    15    16   ar
    54    16    17   ar
    55    27    28    1
    56    28    29    1
    57    25    20   ar
    58    17    12   ar
    59    29    22    1
    60    11     7   ar
    61     6     1   ar
    62    48    38   ar
    63    58    53   ar
    64    47    42   ar
    65    34    37    1
@<TRIPOS>MOLECULE
*****
 58 65 0 0 0
SMALL
GASTEIGER

@<TRIPOS>ATOM
      1 C          63.1165   89.6413   11.9870 C.ar    1  UNL1        0.0560
      2 C          63.5026   91.0712   12.2237 C.ar    1  UNL1        0.0445
      3 C          64.4087   91.4243   13.3657 C.ar    1  UNL1        0.1729
      4 C          64.9288   90.3474   14.2711 C.ar    1  UNL1        0.1736
      5 C          64.5428   88.9175   14.0345 C.ar    1  UNL1        0.0548
      6 C          63.6366   88.5643   12.8924 C.ar    1  UNL1        0.0569
      7 N          60.9273   89.4238    8.7893 N.ar    1  UNL1       -0.1285
      8 N          60.7047   88.0656    9.3859 N.ar    1  UNL1       -0.0406
      9 N          61.4977   87.9818   10.6563 N.ar    1  UNL1       -0.1074
     10 C          62.2104   89.2881   10.8450 C.ar    1  UNL1        0.2075
     11 N          61.8578   90.1793    9.6911 N.ar    1  UNL1       -0.1253
     12 C          59.1204   90.9616    4.9657 C.ar    1  UNL1       -0.0207
     13 C          58.2573   90.2671    5.9769 C.ar    1  UNL1       -0.0026
     14 C          58.8596   89.7545    7.2515 C.ar    1  UNL1        0.0206
     15 C          60.3250   89.9364    7.5148 C.ar    1  UNL1        0.1045
     16 C          61.1882   90.6309    6.5035 C.ar    1  UNL1        0.0206
     17 C          60.5859   91.1435    5.2290 C.ar    1  UNL1       -0.0026
     18 C          58.5182   91.4742    3.6911 C.3     1  UNL1        0.0437
     19 C          58.9113   92.8228    3.1651 C.3     1  UNL1        0.0771
     20 C          63.5847   93.8971   -1.7598 C.ar    1  UNL1        0.1721
     21 C          62.2329   93.2494   -1.8134 C.ar    1  UNL1        0.0356
     22 C          61.4024   93.1427   -0.5688 C.ar    1  UNL1       -0.0202
     23 C          61.9239   93.6838    0.7294 C.ar    1  UNL1       -0.0068
     24 C          63.2759   94.3315    0.7830 C.ar    1  UNL1        0.0368
     25 C          64.1062   94.4381   -0.4616 C.ar    1  UNL1        0.1721
     26 C          61.0936   93.5771    1.9740 C.3     1  UNL1        0.0990
     27 N          59.7417   92.9294    1.9204 N.3     1  UNL1       -0.2683
     28 C          59.2202   92.3884    0.6223 C.3     1  UNL1        0.0771
     29 C          60.0506   92.4950   -0.6224 C.3     1  UNL1        0.0435
     30 C          64.2380   93.0076   -4.1119 C.3     1  UNL1        0.2526
     31 O          64.4152   94.0037   -3.0045 O.3     1  UNL1       -0.4684
     32 O          65.4582   95.0858   -0.4081 O.3     1  UNL1       -0.4684
     33 C          65.5861   96.5214    0.0075 C.3     1  UNL1        0.2526
     34 N          63.2506   87.1343   12.6558 N.am    1  UNL1       -0.2777
     35 C          63.8387   86.0480   13.5068 C.2     1  UNL1        0.2843
     36 O          64.8128   86.3918   14.5944 O.2     1  UNL1       -0.2665
     37 H          62.6112   86.9086   11.9419 H       1  UNL1        0.1553
     38 C          63.4527   84.6180   13.2702 C.ar    1  UNL1        0.2017
     39 C          62.7583   83.8403   14.3487 C.ar    1  UNL1        0.0843
     40 C          62.3723   82.4103   14.1122 C.ar    1  UNL1        0.2018
     41 O          61.6779   81.6326   15.1907 O.2     1  UNL1       -0.2864
     42 C          62.6807   81.7579   12.7971 C.ar    1  UNL1        0.0735
     43 C          62.2946   80.3278   12.5605 C.ar    1  UNL1        0.0062
     44 C          62.6029   79.6754   11.2455 C.ar    1  UNL1        0.0003
     45 C          63.2973   80.4531   10.1670 C.ar    1  UNL1        0.0031
     46 C          63.6833   81.8832   10.4036 C.ar    1  UNL1        0.0376
     47 C          63.3750   82.5356   11.7186 C.ar    1  UNL1        0.1485
     48 O          63.7610   83.9656   11.9552 O.2     1  UNL1       -0.4487
     49 O          65.8349   90.7005   15.4131 O.3     1  UNL1       -0.4683
     50 C          67.2389   91.1545   15.1439 C.3     1  UNL1        0.2526
     51 O          64.7947   92.8544   13.6023 O.3     1  UNL1       -0.4676
     52 C          66.1856   93.3181   13.2854 C.3     1  UNL1        0.2321
     53 C          66.6045   93.5121   11.8581 C.ar    1  UNL1        0.0212
     54 C          67.2661   92.3917   11.1119 C.ar    1  UNL1       -0.0007
     55 C          67.6850   92.5856    9.6847 C.ar    1  UNL1       -0.0002
     56 C          67.4424   93.8999    9.0038 C.ar    1  UNL1       -0.0000
     57 C          66.7808   95.0204    9.7501 C.ar    1  UNL1       -0.0002
     58 C          66.3619   94.8264   11.1772 C.ar    1  UNL1       -0.0007
@<TRIPOS>BOND
     1    30    31    1
     2    31    20    1
     3    20    21   ar
     4    21    22   ar
     5    22    23   ar
     6    23    24   ar
     7    24    25   ar
     8    25    32    1
     9    32    33    1
    10    23    26    1
    11    26    27    1
    12    27    19    1
    13    19    18    1
    14    18    12    1
    15    12    13   ar
    16    13    14   ar
    17    14    15   ar
    18    15     7    1
    19     7     8   ar
    20     8     9   ar
    21     9    10   ar
    22    10     1    1
    23     1     2   ar
    24     2     3   ar
    25     3    51    1
    26    51    52    1
    27    52    53    1
    28    53    54   ar
    29    54    55   ar
    30    55    56   ar
    31    56    57   ar
    32    57    58   ar
    33     3     4   ar
    34     4    49    1
    35    49    50    1
    36     4     5   ar
    37     5     6   ar
    38     6    34    1
    39    34    35   am
    40    35    36    2
    41    35    38    1
    42    38    39   ar
    43    39    40   ar
    44    40    41    2
    45    40    42   ar
    46    42    43   ar
    47    43    44   ar
    48    44    45   ar
    49    45    46   ar
    50    46    47   ar
    51    47    48   ar
    52    10    11   ar
    53    15    16   ar
    54    16    17   ar
    55    27    28    1
    56    28    29    1
    57    25    20   ar
    58    17    12   ar
    59    29    22    1
    60    11     7   ar
    61     6     1   ar
    62    48    38   ar
    63    58    53   ar
    64    47    42   ar
    65    34    37    1
@<TRIPOS>MOLECULE
*****
 58 65 0 0 0
SMALL
GASTEIGER

@<TRIPOS>ATOM
      1 C          63.0963   89.5078   11.9485 C.ar    1  UNL1        0.0560
      2 C          63.4769   90.9379   12.1927 C.ar    1  UNL1        0.0445
      3 C          64.3069   91.2994   13.3887 C.ar    1  UNL1        0.1729
      4 C          64.7564   90.2306   14.3405 C.ar    1  UNL1        0.1736
      5 C          64.3758   88.8005   14.0962 C.ar    1  UNL1        0.0548
      6 C          63.5458   88.4390   12.9002 C.ar    1  UNL1        0.0569
      7 N          61.0086   89.3038    8.6827 N.ar    1  UNL1       -0.1285
      8 N          60.9694   87.8762    9.1413 N.ar    1  UNL1       -0.0406
      9 N          61.7467   87.7788   10.4205 N.ar    1  UNL1       -0.1074
     10 C          62.2663   89.1463   10.7525 C.ar    1  UNL1        0.2075
     11 N          61.8101   90.0888    9.6784 N.ar    1  UNL1       -0.1253
     12 C          59.0631   90.9438    4.9712 C.ar    1  UNL1       -0.0207
     13 C          58.2369   90.2241    5.9956 C.ar    1  UNL1       -0.0026
     14 C          58.8854   89.6774    7.2328 C.ar    1  UNL1        0.0206
     15 C          60.3601   89.8505    7.4455 C.ar    1  UNL1        0.1045
     16 C          61.1863   90.5702    6.4211 C.ar    1  UNL1        0.0206
     17 C          60.5378   91.1169    5.1840 C.ar    1  UNL1       -0.0026
     18 C          58.4146   91.4905    3.7341 C.3     1  UNL1        0.0437
     19 C          58.8211   92.8341    3.2053 C.3     1  UNL1        0.0771
     20 C          61.7235   93.5227   -2.9876 C.ar    1  UNL1        0.1721
     21 C          62.3263   93.2118   -1.6498 C.ar    1  UNL1        0.0356
     22 C          61.4500   93.1174   -0.4360 C.ar    1  UNL1       -0.0202
     23 C          59.9709   93.3338   -0.5601 C.ar    1  UNL1       -0.0068
     24 C          59.3681   93.6447   -1.8981 C.ar    1  UNL1        0.0368
     25 C          60.2444   93.7391   -3.1118 C.ar    1  UNL1        0.1721
     26 C          59.0946   93.2394    0.6536 C.3     1  UNL1        0.0990
     27 N          59.6975   92.9285    1.9915 N.3     1  UNL1       -0.2683
     28 C          61.1766   92.7121    2.1156 C.3     1  UNL1        0.0771
     29 C          62.0528   92.8065    0.9019 C.3     1  UNL1        0.0435
     30 C          63.8312   92.7669   -4.3054 C.3     1  UNL1        0.2526
     31 O          62.5998   93.6171   -4.2014 O.3     1  UNL1       -0.4684
     32 O          59.6416   94.0500   -4.4497 O.3     1  UNL1       -0.4684
     33 C          58.2412   94.5803   -4.5364 C.3     1  UNL1        0.2526
     34 N          63.1652   87.0087   12.6559 N.am    1  UNL1       -0.2777
     35 C          63.7864   85.9168   13.4756 C.2     1  UNL1        0.2843
     36 O          64.7882   86.2551   14.5395 O.2     1  UNL1       -0.2665
     37 H          62.5076   86.7867   11.9576 H       1  UNL1        0.1553
     38 C          63.4058   84.4866   13.2314 C.ar    1  UNL1        0.2017
     39 C          62.7062   83.7034   14.3023 C.ar    1  UNL1        0.0843
     40 C          62.3256   82.2732   14.0582 C.ar    1  UNL1        0.2018
     41 O          61.6259   81.4898   15.1292 O.2     1  UNL1       -0.2864
     42 C          62.6447   81.6263   12.7430 C.ar    1  UNL1        0.0735
     43 C          62.2641   80.1960   12.4988 C.ar    1  UNL1        0.0062
     44 C          62.5832   79.5490   11.1836 C.ar    1  UNL1        0.0003
     45 C          63.2828   80.3323   10.1126 C.ar    1  UNL1        0.0031
     46 C          63.6634   81.7626   10.3568 C.ar    1  UNL1        0.0376
     47 C          63.3443   82.4095   11.6720 C.ar    1  UNL1        0.1485
     48 O          63.7249   83.8397   11.9162 O.2     1  UNL1       -0.4487
     49 O          65.5864   90.5921   15.5365 O.3     1  UNL1       -0.4683
     50 C          65.1599   91.7161   16.4334 C.3     1  UNL1        0.2526
     51 O          64.6875   92.7296   13.6330 O.3     1  UNL1       -0.4676
     52 C          66.0903   93.1886   13.3657 C.3     1  UNL1        0.2321
     53 C          66.5277   93.4852   11.9618 C.ar    1  UNL1        0.0212
     54 C          66.2691   94.8371   11.3656 C.ar    1  UNL1       -0.0007
     55 C          66.7064   95.1338    9.9618 C.ar    1  UNL1       -0.0002
     56 C          67.4024   94.0786    9.1542 C.ar    1  UNL1       -0.0000
     57 C          67.6611   92.7267    9.7505 C.ar    1  UNL1       -0.0002
     58 C          67.2237   92.4301   11.1542 C.ar    1  UNL1       -0.0007
@<TRIPOS>BOND
     1    30    31    1
     2    31    20    1
     3    20    21   ar
     4    21    22   ar
     5    22    23   ar
     6    23    24   ar
     7    24    25   ar
     8    25    32    1
     9    32    33    1
    10    23    26    1
    11    26    27    1
    12    27    19    1
    13    19    18    1
    14    18    12    1
    15    12    13   ar
    16    13    14   ar
    17    14    15   ar
    18    15     7    1
    19     7     8   ar
    20     8     9   ar
    21     9    10   ar
    22    10     1    1
    23     1     2   ar
    24     2     3   ar
    25     3    51    1
    26    51    52    1
    27    52    53    1
    28    53    54   ar
    29    54    55   ar
    30    55    56   ar
    31    56    57   ar
    32    57    58   ar
    33     3     4   ar
    34     4    49    1
    35    49    50    1
    36     4     5   ar
    37     5     6   ar
    38     6    34    1
    39    34    35   am
    40    35    36    2
    41    35    38    1
    42    38    39   ar
    43    39    40   ar
    44    40    41    2
    45    40    42   ar
    46    42    43   ar
    47    43    44   ar
    48    44    45   ar
    49    45    46   ar
    50    46    47   ar
    51    47    48   ar
    52    10    11   ar
    53    15    16   ar
    54    16    17   ar
    55    27    28    1
    56    28    29    1
    57    25    20   ar
    58    17    12   ar
    59    29    22    1
    60    11     7   ar
    61     6     1   ar
    62    48    38   ar
    63    58    53   ar
    64    47    42   ar
    65    34    37    1
@<TRIPOS>MOLECULE
*****
 58 65 0 0 0
SMALL
GASTEIGER

@<TRIPOS>ATOM
      1 C          62.6509   85.3835   12.5686 C.ar    1  UNL1        0.0560
      2 C          62.1409   84.0416   13.0034 C.ar    1  UNL1        0.0445
      3 C          62.3442   83.5842   14.4174 C.ar    1  UNL1        0.1729
      4 C          63.0574   84.4687   15.3966 C.ar    1  UNL1        0.1736
      5 C          63.5673   85.8106   14.9618 C.ar    1  UNL1        0.0548
      6 C          63.3641   86.2680   13.5478 C.ar    1  UNL1        0.0569
      7 N          61.5573   86.9693    9.1989 N.ar    1  UNL1       -0.1285
      8 N          62.7125   86.1201    8.7582 N.ar    1  UNL1       -0.0406
      9 N          63.2628   85.4227    9.9668 N.ar    1  UNL1       -0.1074
     10 C          62.4476   85.8409   11.1545 C.ar    1  UNL1        0.2075
     11 N          61.3936   86.7967   10.6799 N.ar    1  UNL1       -0.1253
     12 C          59.0270   89.5770    6.5442 C.ar    1  UNL1       -0.0207
     13 C          59.8139   90.1879    7.6656 C.ar    1  UNL1       -0.0026
     14 C          60.6574   89.3187    8.5505 C.ar    1  UNL1        0.0206
     15 C          60.7139   87.8385    8.3140 C.ar    1  UNL1        0.1045
     16 C          59.9269   87.2276    7.1926 C.ar    1  UNL1        0.0206
     17 C          59.0835   88.0968    6.3077 C.ar    1  UNL1       -0.0026
     18 C          58.1836   90.4462    5.6593 C.3     1  UNL1        0.0437
     19 C          58.6337   91.8376    5.3256 C.3     1  UNL1        0.0771
     20 C          63.0942   93.6426    0.4167 C.ar    1  UNL1        0.1721
     21 C          63.2288   92.6821    1.5610 C.ar    1  UNL1        0.0356
     22 C          62.0800   92.4709    2.5022 C.ar    1  UNL1       -0.0202
     23 C          60.7966   93.2203    2.2990 C.ar    1  UNL1       -0.0068
     24 C          60.6620   94.1808    1.1547 C.ar    1  UNL1        0.0368
     25 C          61.8107   94.3919    0.2136 C.ar    1  UNL1        0.1721
     26 C          59.6478   93.0092    3.2402 C.3     1  UNL1        0.0990
     27 N          59.7825   92.0487    4.3844 N.3     1  UNL1       -0.2683
     28 C          61.0659   91.2994    4.5875 C.3     1  UNL1        0.0771
     29 C          62.2147   91.5105    3.6464 C.3     1  UNL1        0.0435
     30 C          65.0959   95.0816   -0.4032 C.3     1  UNL1        0.2526
     31 O          64.2430   93.8537   -0.5245 O.3     1  UNL1       -0.4684
     32 O          61.6761   95.3525   -0.9307 O.3     1  UNL1       -0.4684
     33 C          60.4274   96.1699   -1.0808 C.3     1  UNL1        0.2526
     34 N          63.8740   87.6101   13.1130 N.am    1  UNL1       -0.2777
     35 C          64.0538   88.7066   14.1207 C.2     1  UNL1        0.2843
     36 O          63.7237   88.4611   15.5631 O.2     1  UNL1       -0.2665
     37 H          64.0907   87.7712   12.1662 H       1  UNL1        0.1553
     38 C          64.5638   90.0485   13.6859 C.ar    1  UNL1        0.2017
     39 C          65.3086   90.9178   14.6552 C.ar    1  UNL1        0.0843
     40 C          65.8185   92.2597   14.2205 C.ar    1  UNL1        0.2018
     41 O          66.5634   93.1291   15.1899 O.2     1  UNL1       -0.2864
     42 C          65.5837   92.7325   12.8165 C.ar    1  UNL1        0.0735
     43 C          66.0937   94.0745   12.3817 C.ar    1  UNL1        0.0062
     44 C          65.8588   94.5472   10.9777 C.ar    1  UNL1        0.0003
     45 C          65.1140   93.6780   10.0083 C.ar    1  UNL1        0.0031
     46 C          64.6040   92.3359   10.4431 C.ar    1  UNL1        0.0376
     47 C          64.8389   91.8632   11.8472 C.ar    1  UNL1        0.1485
     48 O          64.3289   90.5213   12.2818 O.2     1  UNL1       -0.4487
     49 O          63.2606   84.0113   16.8106 O.3     1  UNL1       -0.4683
     50 C          63.4662   85.0189   17.9026 C.3     1  UNL1        0.2526
     51 O          61.8342   82.2422   14.8521 O.3     1  UNL1       -0.4676
     52 C          62.5441   80.9938   14.4191 C.3     1  UNL1        0.2321
     53 C          62.7362   80.7082   12.9590 C.ar    1  UNL1        0.0212
     54 C          62.3929   79.3561   12.4078 C.ar    1  UNL1       -0.0007
     55 C          62.5849   79.0706   10.9478 C.ar    1  UNL1       -0.0002
     56 C          63.1201   80.1372   10.0391 C.ar    1  UNL1       -0.0000
     57 C          63.4634   81.4894   10.5903 C.ar    1  UNL1       -0.0002
     58 C          63.2714   81.7749   12.0503 C.ar    1  UNL1       -0.0007
@<TRIPOS>BOND
     1    30    31    1
     2    31    20    1
     3    20    21   ar
     4    21    22   ar
     5    22    23   ar
     6    23    24   ar
     7    24    25   ar
     8    25    32    1
     9    32    33    1
    10    23    26    1
    11    26    27    1
    12    27    19    1
    13    19    18    1
    14    18    12    1
    15    12    13   ar
    16    13    14   ar
    17    14    15   ar
    18    15     7    1
    19     7     8   ar
    20     8     9   ar
    21     9    10   ar
    22    10     1    1
    23     1     2   ar
    24     2     3   ar
    25     3    51    1
    26    51    52    1
    27    52    53    1
    28    53    54   ar
    29    54    55   ar
    30    55    56   ar
    31    56    57   ar
    32    57    58   ar
    33     3     4   ar
    34     4    49    1
    35    49    50    1
    36     4     5   ar
    37     5     6   ar
    38     6    34    1
    39    34    35   am
    40    35    36    2
    41    35    38    1
    42    38    39   ar
    43    39    40   ar
    44    40    41    2
    45    40    42   ar
    46    42    43   ar
    47    43    44   ar
    48    44    45   ar
    49    45    46   ar
    50    46    47   ar
    51    47    48   ar
    52    10    11   ar
    53    15    16   ar
    54    16    17   ar
    55    27    28    1
    56    28    29    1
    57    25    20   ar
    58    17    12   ar
    59    29    22    1
    60    11     7   ar
    61     6     1   ar
    62    48    38   ar
    63    58    53   ar
    64    47    42   ar
    65    34    37    1
@<TRIPOS>MOLECULE
*****
 58 65 0 0 0
SMALL
GASTEIGER

@<TRIPOS>ATOM
      1 C          63.1596   89.7866   11.9837 C.ar    1  UNL1        0.0560
      2 C          63.5429   91.2150   12.2340 C.ar    1  UNL1        0.0445
      3 C          64.4489   91.5589   13.3789 C.ar    1  UNL1        0.1729
      4 C          64.9717   90.4744   14.2736 C.ar    1  UNL1        0.1736
      5 C          64.5884   89.0460   14.0234 C.ar    1  UNL1        0.0548
      6 C          63.6823   88.7021   12.8785 C.ar    1  UNL1        0.0569
      7 N          61.0049   89.5783    8.7620 N.ar    1  UNL1       -0.1285
      8 N          60.7137   88.2485    9.3919 N.ar    1  UNL1       -0.0406
      9 N          61.4854   88.1647   10.6755 N.ar    1  UNL1       -0.1074
     10 C          62.2536   89.4427   10.8388 C.ar    1  UNL1        0.2075
     11 N          61.9566   90.3164    9.6563 N.ar    1  UNL1       -0.1253
     12 C          59.3194   91.0885    4.8725 C.ar    1  UNL1       -0.0207
     13 C          58.4100   90.4774    5.8971 C.ar    1  UNL1       -0.0026
     14 C          58.9719   89.9740    7.1936 C.ar    1  UNL1        0.0206
     15 C          60.4431   90.0817    7.4656 C.ar    1  UNL1        0.1045
     16 C          61.3524   90.6928    6.4410 C.ar    1  UNL1        0.0206
     17 C          60.7906   91.1962    5.1445 C.ar    1  UNL1       -0.0026
     18 C          58.7575   91.5919    3.5760 C.3     1  UNL1        0.0437
     19 C          59.3944   92.7619    2.8866 C.3     1  UNL1        0.0771
     20 C          58.1064   93.5177   -3.8231 C.ar    1  UNL1        0.1721
     21 C          59.3546   93.0999   -3.1037 C.ar    1  UNL1        0.0356
     22 C          59.3646   93.0154   -1.6061 C.ar    1  UNL1       -0.0202
     23 C          58.1263   93.3487   -0.8279 C.ar    1  UNL1       -0.0068
     24 C          56.8781   93.7666   -1.5473 C.ar    1  UNL1        0.0368
     25 C          56.8682   93.8511   -3.0448 C.ar    1  UNL1        0.1721
     26 C          58.1363   93.2643    0.6697 C.3     1  UNL1        0.0990
     27 N          59.3844   92.8464    1.3890 N.3     1  UNL1       -0.2683
     28 C          60.6227   92.5131    0.6108 C.3     1  UNL1        0.0771
     29 C          60.6127   92.5975   -0.8868 C.3     1  UNL1        0.0435
     30 C          57.4092   92.5405   -6.1272 C.3     1  UNL1        0.2526
     31 O          58.0965   93.6022   -5.3207 O.3     1  UNL1       -0.4684
     32 O          55.6200   94.2689   -3.7642 O.3     1  UNL1       -0.4684
     33 C          55.0018   95.6055   -3.4791 C.3     1  UNL1        0.2526
     34 N          63.2990   87.2736   12.6283 N.am    1  UNL1       -0.2777
     35 C          63.8467   86.1857   13.5038 C.2     1  UNL1        0.2843
     36 O          64.7777   86.5263   14.6295 O.2     1  UNL1       -0.2665
     37 H          62.6879   87.0500   11.8894 H       1  UNL1        0.1553
     38 C          63.4634   84.7572   13.2537 C.ar    1  UNL1        0.2017
     39 C          62.7662   83.9696   14.3229 C.ar    1  UNL1        0.0843
     40 C          62.3829   82.5412   14.0729 C.ar    1  UNL1        0.2018
     41 O          61.6855   81.7534   15.1422 O.2     1  UNL1       -0.2864
     42 C          62.6969   81.9004   12.7534 C.ar    1  UNL1        0.0735
     43 C          62.3135   80.4718   12.5033 C.ar    1  UNL1        0.0062
     44 C          62.6275   79.8310   11.1839 C.ar    1  UNL1        0.0003
     45 C          63.3248   80.6187   10.1147 C.ar    1  UNL1        0.0031
     46 C          63.7081   82.0473   10.3648 C.ar    1  UNL1        0.0376
     47 C          63.3941   82.6880   11.6842 C.ar    1  UNL1        0.1485
     48 O          63.7774   84.1164   11.9343 O.2     1  UNL1       -0.4487
     49 O          65.8777   90.8183   15.4185 O.3     1  UNL1       -0.4683
     50 C          67.3052   91.1975   15.1575 C.3     1  UNL1        0.2526
     51 O          64.8322   92.9874   13.6290 O.3     1  UNL1       -0.4676
     52 C          66.2187   93.4596   13.3054 C.3     1  UNL1        0.2321
     53 C          66.6984   93.4595   11.8841 C.ar    1  UNL1        0.0212
     54 C          67.4444   92.2753   11.3445 C.ar    1  UNL1       -0.0007
     55 C          67.9241   92.2751    9.9233 C.ar    1  UNL1       -0.0002
     56 C          67.6579   93.4591    9.0417 C.ar    1  UNL1       -0.0000
     57 C          66.9119   94.6433    9.5813 C.ar    1  UNL1       -0.0002
     58 C          66.4322   94.6435   11.0025 C.ar    1  UNL1       -0.0007
@<TRIPOS>BOND
     1    30    31    1
     2    31    20    1
     3    20    21   ar
     4    21    22   ar
     5    22    23   ar
     6    23    24   ar
     7    24    25   ar
     8    25    32    1
     9    32    33    1
    10    23    26    1
    11    26    27    1
    12    27    19    1
    13    19    18    1
    14    18    12    1
    15    12    13   ar
    16    13    14   ar
    17    14    15   ar
    18    15     7    1
    19     7     8   ar
    20     8     9   ar
    21     9    10   ar
    22    10     1    1
    23     1     2   ar
    24     2     3   ar
    25     3    51    1
    26    51    52    1
    27    52    53    1
    28    53    54   ar
    29    54    55   ar
    30    55    56   ar
    31    56    57   ar
    32    57    58   ar
    33     3     4   ar
    34     4    49    1
    35    49    50    1
    36     4     5   ar
    37     5     6   ar
    38     6    34    1
    39    34    35   am
    40    35    36    2
    41    35    38    1
    42    38    39   ar
    43    39    40   ar
    44    40    41    2
    45    40    42   ar
    46    42    43   ar
    47    43    44   ar
    48    44    45   ar
    49    45    46   ar
    50    46    47   ar
    51    47    48   ar
    52    10    11   ar
    53    15    16   ar
    54    16    17   ar
    55    27    28    1
    56    28    29    1
    57    25    20   ar
    58    17    12   ar
    59    29    22    1
    60    11     7   ar
    61     6     1   ar
    62    48    38   ar
    63    58    53   ar
    64    47    42   ar
    65    34    37    1
@<TRIPOS>MOLECULE
*****
 58 65 0 0 0
SMALL
GASTEIGER

@<TRIPOS>ATOM
      1 C          62.1879   85.4475   13.1292 C.ar    1  UNL1        0.0560
      2 C          61.6144   84.0857   13.3871 C.ar    1  UNL1        0.0445
      3 C          62.4322   83.0502   14.1003 C.ar    1  UNL1        0.1729
      4 C          63.8237   83.3765   14.5558 C.ar    1  UNL1        0.1736
      5 C          64.3972   84.7382   14.2980 C.ar    1  UNL1        0.0548
      6 C          63.5793   85.7737   13.5847 C.ar    1  UNL1        0.0569
      7 N          60.3813   87.8369   10.6609 N.ar    1  UNL1       -0.1285
      8 N          59.8416   88.3163   11.9758 N.ar    1  UNL1       -0.0406
      9 N          60.4527   87.4796   13.0605 N.ar    1  UNL1       -0.1074
     10 C          61.3700   86.4830   12.4160 C.ar    1  UNL1        0.2075
     11 N          61.3259   86.7038   10.9330 N.ar    1  UNL1       -0.1253
     12 C          59.3480   89.5048    6.6112 C.ar    1  UNL1       -0.0207
     13 C          60.0837   90.3527    7.6061 C.ar    1  UNL1       -0.0026
     14 C          60.4281   89.7967    8.9561 C.ar    1  UNL1        0.0206
     15 C          60.0369   88.3928    9.3110 C.ar    1  UNL1        0.1045
     16 C          59.3012   87.5449    8.3161 C.ar    1  UNL1        0.0206
     17 C          58.9567   88.1009    6.9663 C.ar    1  UNL1       -0.0026
     18 C          59.0035   90.0608    5.2614 C.3     1  UNL1        0.0437
     19 C          59.2421   91.5117    4.9646 C.3     1  UNL1        0.0771
     20 C          63.4130   94.1849    0.1994 C.ar    1  UNL1        0.1721
     21 C          63.6544   93.1242    1.2320 C.ar    1  UNL1        0.0356
     22 C          62.5513   92.7210    2.1652 C.ar    1  UNL1       -0.0202
     23 C          61.2068   93.3787    2.0657 C.ar    1  UNL1       -0.0068
     24 C          60.9655   94.4395    1.0329 C.ar    1  UNL1        0.0368
     25 C          62.0685   94.8426    0.0998 C.ar    1  UNL1        0.1721
     26 C          60.1038   92.9756    2.9988 C.3     1  UNL1        0.0990
     27 N          60.3452   91.9148    4.0314 N.3     1  UNL1       -0.2683
     28 C          61.6896   91.2572    4.1310 C.3     1  UNL1        0.0771
     29 C          62.7927   91.6602    3.1979 C.3     1  UNL1        0.0435
     30 C          65.3874   95.7630   -0.4018 C.3     1  UNL1        0.2526
     31 O          64.5161   94.5881   -0.7338 O.3     1  UNL1       -0.4684
     32 O          61.8272   95.9034   -0.9329 O.3     1  UNL1       -0.4684
     33 C          60.6555   96.8301   -0.7966 C.3     1  UNL1        0.2526
     34 N          64.1530   87.1356   13.3268 N.am    1  UNL1       -0.2777
     35 C          64.0424   88.2061   14.3718 C.2     1  UNL1        0.2843
     36 O          63.3584   87.9148   15.6745 O.2     1  UNL1       -0.2665
     37 H          64.6019   87.3268   12.4718 H       1  UNL1        0.1553
     38 C          64.6160   89.5679   14.1140 C.ar    1  UNL1        0.2017
     39 C          64.2355   90.3193   12.8728 C.ar    1  UNL1        0.0843
     40 C          64.8089   91.6811   12.6149 C.ar    1  UNL1        0.2018
     41 O          64.4284   92.4325   11.3737 O.2     1  UNL1       -0.2864
     42 C          65.7630   92.2915   13.5983 C.ar    1  UNL1        0.0735
     43 C          66.3366   93.6534   13.3405 C.ar    1  UNL1        0.0062
     44 C          67.2907   94.2639   14.3239 C.ar    1  UNL1        0.0003
     45 C          67.6712   93.5125   15.5651 C.ar    1  UNL1        0.0031
     46 C          67.0977   92.1506   15.8230 C.ar    1  UNL1        0.0376
     47 C          66.1436   91.5402   14.8396 C.ar    1  UNL1        0.1485
     48 O          65.5701   90.1784   15.0974 O.2     1  UNL1       -0.4487
     49 O          64.6415   82.3409   15.2691 O.3     1  UNL1       -0.4683
     50 C          65.2744   81.2221   14.4962 C.3     1  UNL1        0.2526
     51 O          61.8586   81.6884   14.3582 O.3     1  UNL1       -0.4676
     52 C          62.5911   80.4654   13.8916 C.3     1  UNL1        0.2321
     53 C          62.7104   80.1766   12.4245 C.ar    1  UNL1        0.0212
     54 C          62.4806   78.7855   11.9128 C.ar    1  UNL1       -0.0007
     55 C          62.5999   78.4968   10.4457 C.ar    1  UNL1       -0.0002
     56 C          62.9491   79.5992    9.4903 C.ar    1  UNL1       -0.0000
     57 C          63.1789   80.9903   10.0020 C.ar    1  UNL1       -0.0002
     58 C          63.0596   81.2790   11.4691 C.ar    1  UNL1       -0.0007
@<TRIPOS>BOND
     1    30    31    1
     2    31    20    1
     3    20    21   ar
     4    21    22   ar
     5    22    23   ar
     6    23    24   ar
     7    24    25   ar
     8    25    32    1
     9    32    33    1
    10    23    26    1
    11    26    27    1
    12    27    19    1
    13    19    18    1
    14    18    12    1
    15    12    13   ar
    16    13    14   ar
    17    14    15   ar
    18    15     7    1
    19     7     8   ar
    20     8     9   ar
    21     9    10   ar
    22    10     1    1
    23     1     2   ar
    24     2     3   ar
    25     3    51    1
    26    51    52    1
    27    52    53    1
    28    53    54   ar
    29    54    55   ar
    30    55    56   ar
    31    56    57   ar
    32    57    58   ar
    33     3     4   ar
    34     4    49    1
    35    49    50    1
    36     4     5   ar
    37     5     6   ar
    38     6    34    1
    39    34    35   am
    40    35    36    2
    41    35    38    1
    42    38    39   ar
    43    39    40   ar
    44    40    41    2
    45    40    42   ar
    46    42    43   ar
    47    43    44   ar
    48    44    45   ar
    49    45    46   ar
    50    46    47   ar
    51    47    48   ar
    52    10    11   ar
    53    15    16   ar
    54    16    17   ar
    55    27    28    1
    56    28    29    1
    57    25    20   ar
    58    17    12   ar
    59    29    22    1
    60    11     7   ar
    61     6     1   ar
    62    48    38   ar
    63    58    53   ar
    64    47    42   ar
    65    34    37    1
