@<TRIPOS>MOLECULE
*****
 47 52 0 0 0
SMALL
GASTEIGER

@<TRIPOS>ATOM
      1 N          59.8050   88.8862    8.7284 N.am    1  UNL1       -0.2721
      2 C          59.1290   88.6926    7.4035 C.2     1  UNL1        0.2492
      3 O          58.3887   87.4196    7.1181 O.2     1  UNL1       -0.2699
      4 C          59.1933   89.7720    6.3638 C.ar    1  UNL1        0.0567
      5 C          57.9531   90.5285    5.9904 C.ar    1  UNL1        0.0063
      6 C          58.0174   91.6078    4.9508 C.ar    1  UNL1        0.0225
      7 C          59.3220   91.9307    4.2846 C.ar    1  UNL1        0.1202
      8 N          59.6904   92.9345    3.2325 N.ar    1  UNL1       -0.1946
      9 C          61.1583   92.7983    2.9558 C.ar    1  UNL1        0.2924
     10 O          61.6972   91.7104    3.8368 O.2     1  UNL1       -0.4237
     11 C          60.5623   91.1742    4.6580 C.ar    1  UNL1        0.1662
     12 C          60.4979   90.0949    5.6976 C.ar    1  UNL1        0.0437
     13 N          61.9487   93.6079    1.9709 N.pl3   1  UNL1       -0.2636
     14 C          61.5453   94.9319    1.3926 C.3     1  UNL1        0.0951
     15 C          62.6286   95.3778    0.4557 C.3     1  UNL1        0.0233
     16 C          63.7014   94.3295    0.4551 C.3     1  UNL1        0.0233
     17 C          63.2812   93.2356    1.3916 C.3     1  UNL1        0.0951
     18 C          60.5453   90.1592    9.0138 C.3     1  UNL1        0.1246
     19 C          61.0825   90.4221   10.3894 C.3     1  UNL1        0.1484
     20 O          60.1412   90.7293   11.5161 O.3     1  UNL1       -0.3810
     21 H          59.2287   90.7184   11.1872 H       1  UNL1        0.2105
     22 C          62.5611   90.3780   10.6383 C.3     1  UNL1        0.1075
     23 O          62.1877   89.6584   13.5267 O.2     1  UNL1       -0.2264
     24 C          63.0054   88.7736   12.6330 C.2     1  UNL1        0.4020
     25 N          63.1921   89.1334   11.1888 N.am    1  UNL1       -0.2695
     26 H          63.7288   88.5527   10.6022 H       1  UNL1        0.1528
     27 O          63.6364   87.5292   13.1835 O.3     1  UNL1       -0.4291
     28 C          63.2421   86.1864   12.6436 C.3     1  UNL1        0.2447
     29 C          63.5040   84.9480   13.4486 C.ar    1  UNL1        0.0714
     30 C          64.0830   84.9014   14.8315 C.ar    1  UNL1        0.1053
     31 N          64.1698   83.4635   15.2496 N.ar    1  UNL1       -0.2350
     32 C          63.6444   82.6214   14.1249 C.ar    1  UNL1        0.1343
     33 S          63.2329   83.5388   13.0119 S.2     1  UNL1       -0.0652
     34 C          63.4086   91.5782   10.3367 C.3     1  UNL1        0.0485
     35 C          64.5949   91.8943   11.1984 C.ar    1  UNL1       -0.0204
     36 C          65.8693   92.3780   10.5721 C.ar    1  UNL1       -0.0042
     37 C          67.0556   92.6941   11.4339 C.ar    1  UNL1       -0.0003
     38 C          66.9677   92.5264   12.9219 C.ar    1  UNL1       -0.0000
     39 C          65.6935   92.0427   13.5482 C.ar    1  UNL1       -0.0003
     40 C          64.5070   91.7266   12.6864 C.ar    1  UNL1       -0.0042
     41 C          59.7407   87.8068    9.7681 C.3     1  UNL1        0.1111
     42 C          60.9057   86.8822    9.9623 C.3     1  UNL1        0.0939
     43 N          61.4308   86.0842    8.8059 N.3     1  UNL1       -0.2712
     44 C          62.8543   85.6566    8.6037 C.3     1  UNL1        0.0722
     45 C          62.9279   84.8817    7.3215 C.3     1  UNL1        0.0188
     46 C          61.5498   84.8304    6.7312 C.3     1  UNL1        0.0188
     47 C          60.6246   85.5736    7.6487 C.3     1  UNL1        0.0722
@<TRIPOS>BOND
     1    23    24    2
     2    24    25   am
     3    25    22    1
     4    22    34    1
     5    34    35    1
     6    35    36   ar
     7    36    37   ar
     8    37    38   ar
     9    38    39   ar
    10    39    40   ar
    11    22    19    1
    12    19    20    1
    13    19    18    1
    14    18     1    1
    15     1    41    1
    16    41    42    1
    17    42    43    1
    18    43    44    1
    19    44    45    1
    20    45    46    1
    21    46    47    1
    22     1     2   am
    23     2     3    2
    24     2     4    1
    25     4     5   ar
    26     5     6   ar
    27     6     7   ar
    28     7     8   ar
    29     8     9   ar
    30     9    13    1
    31    13    14    1
    32    14    15    1
    33    15    16    1
    34    16    17    1
    35     9    10   ar
    36    10    11   ar
    37    11    12   ar
    38    24    27    1
    39    27    28    1
    40    28    29    1
    41    29    30   ar
    42    30    31   ar
    43    31    32   ar
    44    32    33   ar
    45    40    35   ar
    46    47    43    1
    47    12     4   ar
    48    33    29   ar
    49    11     7   ar
    50    17    13    1
    51    25    26    1
    52    20    21    1
@<TRIPOS>MOLECULE
*****
 47 52 0 0 0
SMALL
GASTEIGER

@<TRIPOS>ATOM
      1 N          64.0719   90.6195   13.2263 N.am    1  UNL1       -0.2721
      2 C          64.2016   90.2042   14.6618 C.2     1  UNL1        0.2492
      3 O          64.6862   91.1871   15.6861 O.2     1  UNL1       -0.2699
      4 C          63.8467   88.8060   15.0731 C.ar    1  UNL1        0.0567
      5 C          63.3854   88.5304   16.4735 C.ar    1  UNL1        0.0063
      6 C          63.0306   87.1322   16.8847 C.ar    1  UNL1        0.0225
      7 C          63.1370   86.0097   15.8956 C.ar    1  UNL1        0.1202
      8 N          62.8580   84.5403   16.0110 N.ar    1  UNL1       -0.1946
      9 C          63.1470   83.9078   14.6819 C.ar    1  UNL1        0.2924
     10 O          63.6045   84.9863   13.7451 O.2     1  UNL1       -0.4237
     11 C          63.5983   86.2852   14.4951 C.ar    1  UNL1        0.1662
     12 C          63.9532   87.6834   14.0839 C.ar    1  UNL1        0.0437
     13 N          63.0035   82.4524   14.3482 N.pl3   1  UNL1       -0.2636
     14 C          64.1076   81.5345   13.9140 C.3     1  UNL1        0.0951
     15 C          63.5172   80.1742   13.6876 C.3     1  UNL1        0.0233
     16 C          62.0484   80.2515   13.9819 C.3     1  UNL1        0.0233
     17 C          61.7310   81.6596   14.3902 C.3     1  UNL1        0.0951
     18 C          63.5874   89.6366   12.2021 C.3     1  UNL1        0.1246
     19 C          62.1163   89.4058   12.0212 C.3     1  UNL1        0.1484
     20 O          61.1361   90.0407   12.9626 O.3     1  UNL1       -0.3810
     21 H          61.6155   90.5636   13.6242 H       1  UNL1        0.2105
     22 C          61.6253   88.5400   10.8990 C.3     1  UNL1        0.1075
     23 O          59.2865   87.7646    9.1877 O.2     1  UNL1       -0.2264
     24 C          60.3151   88.7221    8.6629 C.2     1  UNL1        0.4020
     25 N          61.4845   89.1098    9.5185 N.am    1  UNL1       -0.2695
     26 H          62.1596   89.7382    9.1741 H       1  UNL1        0.1528
     27 O          60.1742   89.2919    7.2825 O.3     1  UNL1       -0.4291
     28 C          58.8113   89.4878    6.6875 C.3     1  UNL1        0.2447
     29 C          58.5839   90.5700    5.6739 C.ar    1  UNL1        0.0714
     30 C          57.2508   91.0842    5.2172 C.ar    1  UNL1        0.1053
     31 N          57.4926   92.1600    4.2002 N.ar    1  UNL1       -0.2350
     32 C          58.9752   92.3106    4.0284 C.ar    1  UNL1        0.1343
     33 S          59.6496   91.3279    4.9392 S.2     1  UNL1       -0.0652
     34 C          61.2753   87.1045   11.1571 C.3     1  UNL1        0.0485
     35 C          62.0723   86.0103   10.5110 C.ar    1  UNL1       -0.0204
     36 C          62.4555   86.1155    9.0645 C.ar    1  UNL1       -0.0042
     37 C          63.2525   85.0213    8.4183 C.ar    1  UNL1       -0.0003
     38 C          63.6663   83.8220    9.2185 C.ar    1  UNL1       -0.0000
     39 C          63.2831   83.7168   10.6649 C.ar    1  UNL1       -0.0003
     40 C          62.4861   84.8110   11.3112 C.ar    1  UNL1       -0.0042
     41 C          64.4268   92.0177   12.8151 C.3     1  UNL1        0.1111
     42 C          65.8513   92.3690   12.5028 C.3     1  UNL1        0.0939
     43 N          66.8255   92.6116   13.6173 N.3     1  UNL1       -0.2712
     44 C          68.0390   91.7846   13.9232 C.3     1  UNL1        0.0722
     45 C          68.7207   92.3857   15.1165 C.3     1  UNL1        0.0188
     46 C          67.9285   93.5842   15.5480 C.3     1  UNL1        0.0188
     47 C          66.7572   93.7237   14.6214 C.3     1  UNL1        0.0722
@<TRIPOS>BOND
     1    23    24    2
     2    24    25   am
     3    25    22    1
     4    22    34    1
     5    34    35    1
     6    35    36   ar
     7    36    37   ar
     8    37    38   ar
     9    38    39   ar
    10    39    40   ar
    11    22    19    1
    12    19    20    1
    13    19    18    1
    14    18     1    1
    15     1    41    1
    16    41    42    1
    17    42    43    1
    18    43    44    1
    19    44    45    1
    20    45    46    1
    21    46    47    1
    22     1     2   am
    23     2     3    2
    24     2     4    1
    25     4     5   ar
    26     5     6   ar
    27     6     7   ar
    28     7     8   ar
    29     8     9   ar
    30     9    13    1
    31    13    14    1
    32    14    15    1
    33    15    16    1
    34    16    17    1
    35     9    10   ar
    36    10    11   ar
    37    11    12   ar
    38    24    27    1
    39    27    28    1
    40    28    29    1
    41    29    30   ar
    42    30    31   ar
    43    31    32   ar
    44    32    33   ar
    45    40    35   ar
    46    47    43    1
    47    12     4   ar
    48    33    29   ar
    49    11     7   ar
    50    17    13    1
    51    25    26    1
    52    20    21    1
@<TRIPOS>MOLECULE
*****
 47 52 0 0 0
SMALL
GASTEIGER

@<TRIPOS>ATOM
      1 N          64.1577   90.9826   13.1862 N.am    1  UNL1       -0.2721
      2 C          64.8566   90.2153   14.2692 C.2     1  UNL1        0.2492
      3 O          66.1019   90.7683   14.8963 O.2     1  UNL1       -0.2699
      4 C          64.3100   88.8948   14.7250 C.ar    1  UNL1        0.0567
      5 C          63.6852   88.7702   16.0829 C.ar    1  UNL1        0.0063
      6 C          63.1387   87.4498   16.5387 C.ar    1  UNL1        0.0225
      7 C          63.2171   86.2539   15.6366 C.ar    1  UNL1        0.1202
      8 N          62.7669   84.8337   15.8112 N.ar    1  UNL1       -0.1946
      9 C          63.1136   84.0806   14.5612 C.ar    1  UNL1        0.2924
     10 O          63.7780   85.0353   13.6140 O.2     1  UNL1       -0.4237
     11 C          63.8419   86.3785   14.2787 C.ar    1  UNL1        0.1662
     12 C          64.3884   87.6989   13.8229 C.ar    1  UNL1        0.0437
     13 N          62.8433   82.6278   14.3034 N.pl3   1  UNL1       -0.2636
     14 C          63.8435   81.6155   13.8291 C.3     1  UNL1        0.0951
     15 C          63.1437   80.2943   13.7074 C.3     1  UNL1        0.0233
     16 C          61.7111   80.4901   14.1064 C.3     1  UNL1        0.0233
     17 C          61.5254   81.9323   14.4748 C.3     1  UNL1        0.0951
     18 C          62.9124   90.4296   12.5591 C.3     1  UNL1        0.1246
     19 C          62.8311   90.2669   11.0701 C.3     1  UNL1        0.1484
     20 O          63.6020   91.1881   10.1718 O.3     1  UNL1       -0.3810
     21 H          64.0968   91.8255   10.7102 H       1  UNL1        0.2105
     22 C          61.9789   89.1830   10.4795 C.3     1  UNL1        0.1075
     23 O          59.2822   87.9263   10.0939 O.2     1  UNL1       -0.2264
     24 C          59.8566   88.8113    9.0276 C.2     1  UNL1        0.4020
     25 N          61.2050   89.4396    9.2204 N.am    1  UNL1       -0.2695
     26 H          61.5820   90.0205    8.5206 H       1  UNL1        0.1528
     27 O          59.0827   89.0679    7.7686 O.3     1  UNL1       -0.4291
     28 C          59.8065   89.4075    6.4994 C.3     1  UNL1        0.2447
     29 C          59.3068   90.5198    5.6257 C.ar    1  UNL1        0.0714
     30 C          57.8788   90.9568    5.4850 C.ar    1  UNL1        0.1053
     31 N          57.8368   92.0974    4.5118 N.ar    1  UNL1       -0.2350
     32 C          59.2390   92.3653    4.0510 C.ar    1  UNL1        0.1343
     33 S          60.1474   91.3903    4.7394 S.2     1  UNL1       -0.0652
     34 C          61.9005   87.8425   11.1480 C.3     1  UNL1        0.0485
     35 C          62.3668   86.6147   10.4233 C.ar    1  UNL1       -0.0204
     36 C          62.6764   86.6814    8.9571 C.ar    1  UNL1       -0.0042
     37 C          63.1427   85.4536    8.2325 C.ar    1  UNL1       -0.0003
     38 C          63.2994   84.1591    8.9740 C.ar    1  UNL1       -0.0000
     39 C          62.9897   84.0925   10.4401 C.ar    1  UNL1       -0.0003
     40 C          62.5234   85.3203   11.1649 C.ar    1  UNL1       -0.0042
     41 C          64.7043   92.3031   12.7304 C.3     1  UNL1        0.1111
     42 C          66.1385   92.4148   12.3056 C.3     1  UNL1        0.0939
     43 N          66.5386   93.4287   11.2751 N.3     1  UNL1       -0.2712
     44 C          67.2265   93.1392    9.9740 C.3     1  UNL1        0.0722
     45 C          67.4342   94.4417    9.2595 C.3     1  UNL1        0.0188
     46 C          66.8745   95.5362   10.1192 C.3     1  UNL1        0.0188
     47 C          66.3211   94.9101   11.3648 C.3     1  UNL1        0.0722
@<TRIPOS>BOND
     1    23    24    2
     2    24    25   am
     3    25    22    1
     4    22    34    1
     5    34    35    1
     6    35    36   ar
     7    36    37   ar
     8    37    38   ar
     9    38    39   ar
    10    39    40   ar
    11    22    19    1
    12    19    20    1
    13    19    18    1
    14    18     1    1
    15     1    41    1
    16    41    42    1
    17    42    43    1
    18    43    44    1
    19    44    45    1
    20    45    46    1
    21    46    47    1
    22     1     2   am
    23     2     3    2
    24     2     4    1
    25     4     5   ar
    26     5     6   ar
    27     6     7   ar
    28     7     8   ar
    29     8     9   ar
    30     9    13    1
    31    13    14    1
    32    14    15    1
    33    15    16    1
    34    16    17    1
    35     9    10   ar
    36    10    11   ar
    37    11    12   ar
    38    24    27    1
    39    27    28    1
    40    28    29    1
    41    29    30   ar
    42    30    31   ar
    43    31    32   ar
    44    32    33   ar
    45    40    35   ar
    46    47    43    1
    47    12     4   ar
    48    33    29   ar
    49    11     7   ar
    50    17    13    1
    51    25    26    1
    52    20    21    1
@<TRIPOS>MOLECULE
*****
 47 52 0 0 0
SMALL
GASTEIGER

@<TRIPOS>ATOM
      1 N          60.1801   88.4788    8.8390 N.am    1  UNL1       -0.2721
      2 C          59.3548   88.2942    7.6002 C.2     1  UNL1        0.2492
      3 O          58.6479   86.9938    7.3568 O.2     1  UNL1       -0.2699
      4 C          59.2363   89.4101    6.6047 C.ar    1  UNL1        0.0567
      5 C          57.9030   90.0470    6.3472 C.ar    1  UNL1        0.0063
      6 C          57.7845   91.1628    5.3518 C.ar    1  UNL1        0.0225
      7 C          58.9995   91.6416    4.6139 C.ar    1  UNL1        0.1202
      8 N          59.1895   92.7141    3.5824 N.ar    1  UNL1       -0.1946
      9 C          60.6404   92.7400    3.2025 C.ar    1  UNL1        0.2924
     10 O          61.3470   91.6835    3.9991 O.2     1  UNL1       -0.4237
     11 C          60.3329   91.0047    4.8714 C.ar    1  UNL1        0.1662
     12 C          60.4513   89.8889    5.8668 C.ar    1  UNL1        0.0437
     13 N          61.2735   93.6607    2.2017 N.pl3   1  UNL1       -0.2636
     14 C          62.5614   93.4181    1.4719 C.3     1  UNL1        0.0951
     15 C          62.8137   94.5931    0.5742 C.3     1  UNL1        0.0233
     16 C          61.6819   95.5617    0.7493 C.3     1  UNL1        0.0233
     17 C          60.7299   94.9854    1.7552 C.3     1  UNL1        0.0951
     18 C          60.8871   89.7792    9.0824 C.3     1  UNL1        0.1246
     19 C          60.8050   90.4371   10.4280 C.3     1  UNL1        0.1484
     20 O          59.4688   90.7981   11.0061 O.3     1  UNL1       -0.3810
     21 H          58.7682   90.5398   10.3869 H       1  UNL1        0.2105
     22 C          62.0591   90.7339   11.1955 C.3     1  UNL1        0.1075
     23 O          63.4246   88.5861   12.7836 O.2     1  UNL1       -0.2264
     24 C          62.7116   89.7017   13.4887 C.2     1  UNL1        0.4020
     25 N          62.0289   90.7757   12.6946 N.am    1  UNL1       -0.2695
     26 H          61.5610   91.5079   13.1574 H       1  UNL1        0.1528
     27 O          62.6814   89.7434   14.9878 O.3     1  UNL1       -0.4291
     28 C          63.7078   88.9890   15.7799 C.3     1  UNL1        0.2447
     29 C          63.4312   87.5812   16.2177 C.ar    1  UNL1        0.0714
     30 C          62.5934   87.1718   17.3927 C.ar    1  UNL1        0.1053
     31 N          62.5882   85.6732   17.4587 N.ar    1  UNL1       -0.2350
     32 C          63.4228   85.1565   16.3244 C.ar    1  UNL1        0.1343
     33 S          63.9438   86.3357   15.5575 S.2     1  UNL1       -0.0652
     34 C          63.3435   90.9891   10.4638 C.3     1  UNL1        0.0485
     35 C          64.3579   91.9339   11.0366 C.ar    1  UNL1       -0.0204
     36 C          64.8810   93.0673   10.2046 C.ar    1  UNL1       -0.0042
     37 C          65.8954   94.0122   10.7773 C.ar    1  UNL1       -0.0003
     38 C          66.3868   93.8238   12.1820 C.ar    1  UNL1       -0.0000
     39 C          65.8638   92.6906   13.0139 C.ar    1  UNL1       -0.0003
     40 C          64.8493   91.7456   12.4412 C.ar    1  UNL1       -0.0042
     41 C          60.2986   87.3630    9.8345 C.3     1  UNL1        0.1111
     42 C          61.5897   87.1444   10.5660 C.3     1  UNL1        0.0939
     43 N          62.3082   85.8334   10.4440 N.3     1  UNL1       -0.2712
     44 C          62.5613   84.8597   11.5566 C.3     1  UNL1        0.0722
     45 C          63.3093   83.6904   10.9882 C.3     1  UNL1        0.0188
     46 C          63.5184   83.9414    9.5241 C.3     1  UNL1        0.0188
     47 C          62.8997   85.2658    9.1879 C.3     1  UNL1        0.0722
@<TRIPOS>BOND
     1    23    24    2
     2    24    25   am
     3    25    22    1
     4    22    34    1
     5    34    35    1
     6    35    36   ar
     7    36    37   ar
     8    37    38   ar
     9    38    39   ar
    10    39    40   ar
    11    22    19    1
    12    19    20    1
    13    19    18    1
    14    18     1    1
    15     1    41    1
    16    41    42    1
    17    42    43    1
    18    43    44    1
    19    44    45    1
    20    45    46    1
    21    46    47    1
    22     1     2   am
    23     2     3    2
    24     2     4    1
    25     4     5   ar
    26     5     6   ar
    27     6     7   ar
    28     7     8   ar
    29     8     9   ar
    30     9    13    1
    31    13    14    1
    32    14    15    1
    33    15    16    1
    34    16    17    1
    35     9    10   ar
    36    10    11   ar
    37    11    12   ar
    38    24    27    1
    39    27    28    1
    40    28    29    1
    41    29    30   ar
    42    30    31   ar
    43    31    32   ar
    44    32    33   ar
    45    40    35   ar
    46    47    43    1
    47    12     4   ar
    48    33    29   ar
    49    11     7   ar
    50    17    13    1
    51    25    26    1
    52    20    21    1
@<TRIPOS>MOLECULE
*****
 47 52 0 0 0
SMALL
GASTEIGER

@<TRIPOS>ATOM
      1 N          63.7067   89.8584   14.6178 N.am    1  UNL1       -0.2721
      2 C          63.6506   88.9244   15.7901 C.2     1  UNL1        0.2492
      3 O          63.8072   89.4587   17.1829 O.2     1  UNL1       -0.2699
      4 C          63.4379   87.4560   15.5696 C.ar    1  UNL1        0.0567
      5 C          63.0637   86.5711   16.7215 C.ar    1  UNL1        0.0063
      6 C          62.8510   85.1027   16.5009 C.ar    1  UNL1        0.0225
      7 C          63.0125   84.5193   15.1285 C.ar    1  UNL1        0.1202
      8 N          62.8688   83.1191   14.6099 N.ar    1  UNL1       -0.1946
      9 C          63.1541   83.1387   13.1374 C.ar    1  UNL1        0.2924
     10 O          63.4743   84.5510   12.7461 O.2     1  UNL1       -0.4237
     11 C          63.3867   85.4042   13.9767 C.ar    1  UNL1        0.1662
     12 C          63.5994   86.8725   14.1972 C.ar    1  UNL1        0.0437
     13 N          63.1246   81.9541   12.2177 N.pl3   1  UNL1       -0.2636
     14 C          62.7550   80.5511   12.5987 C.3     1  UNL1        0.0951
     15 C          62.8615   79.6944   11.3719 C.3     1  UNL1        0.0233
     16 C          63.2968   80.5679   10.2329 C.3     1  UNL1        0.0233
     17 C          63.4594   81.9646   10.7557 C.3     1  UNL1        0.0951
     18 C          63.5501   89.3241   13.2249 C.3     1  UNL1        0.1246
     19 C          62.3523   89.7045   12.4060 C.3     1  UNL1        0.1484
     20 O          60.9920   89.7372   13.0371 O.3     1  UNL1       -0.3810
     21 H          61.0631   89.4880   13.9718 H       1  UNL1        0.2105
     22 C          62.5149   90.0522   10.9559 C.3     1  UNL1        0.1075
     23 O          63.8092   92.4977   12.1154 O.2     1  UNL1       -0.2264
     24 C          64.4932   91.7352   11.0194 C.2     1  UNL1        0.4020
     25 N          63.8460   90.5125   10.4397 N.am    1  UNL1       -0.2695
     26 H          64.2949   90.0121    9.7204 H       1  UNL1        0.1528
     27 O          65.8242   92.1956   10.5033 O.3     1  UNL1       -0.4291
     28 C          66.4642   93.4270   11.0724 C.3     1  UNL1        0.2447
     29 C          66.7375   94.6073   10.1880 C.ar    1  UNL1        0.0714
     30 C          66.2093   95.9974   10.3847 C.ar    1  UNL1        0.1053
     31 N          66.7322   96.8540    9.2699 N.ar    1  UNL1       -0.2350
     32 C          67.5836   95.9933    8.3842 C.ar    1  UNL1        0.1343
     33 S          67.5868   94.6048    8.9516 S.2     1  UNL1       -0.0652
     34 C          61.3465   89.9396   10.0221 C.3     1  UNL1        0.0485
     35 C          61.0480   88.6330    9.3485 C.ar    1  UNL1       -0.0204
     36 C          61.9637   87.4613    9.5452 C.ar    1  UNL1       -0.0042
     37 C          61.6652   86.1548    8.8717 C.ar    1  UNL1       -0.0003
     38 C          60.4510   86.0198    8.0014 C.ar    1  UNL1       -0.0000
     39 C          59.5352   87.1914    7.8047 C.ar    1  UNL1       -0.0003
     40 C          59.8337   88.4981    8.4783 C.ar    1  UNL1       -0.0042
     41 C          63.9195   91.3269   14.8382 C.3     1  UNL1        0.1111
     42 C          64.9380   91.7959   15.8345 C.3     1  UNL1        0.0939
     43 N          66.3539   92.0375   15.4023 N.3     1  UNL1       -0.2712
     44 C          66.9778   91.5659   14.1224 C.3     1  UNL1        0.0722
     45 C          68.4040   92.0301   14.1032 C.3     1  UNL1        0.0188
     46 C          68.6615   92.7887   15.3714 C.3     1  UNL1        0.0188
     47 C          67.3945   92.7932   16.1743 C.3     1  UNL1        0.0722
@<TRIPOS>BOND
     1    23    24    2
     2    24    25   am
     3    25    22    1
     4    22    34    1
     5    34    35    1
     6    35    36   ar
     7    36    37   ar
     8    37    38   ar
     9    38    39   ar
    10    39    40   ar
    11    22    19    1
    12    19    20    1
    13    19    18    1
    14    18     1    1
    15     1    41    1
    16    41    42    1
    17    42    43    1
    18    43    44    1
    19    44    45    1
    20    45    46    1
    21    46    47    1
    22     1     2   am
    23     2     3    2
    24     2     4    1
    25     4     5   ar
    26     5     6   ar
    27     6     7   ar
    28     7     8   ar
    29     8     9   ar
    30     9    13    1
    31    13    14    1
    32    14    15    1
    33    15    16    1
    34    16    17    1
    35     9    10   ar
    36    10    11   ar
    37    11    12   ar
    38    24    27    1
    39    27    28    1
    40    28    29    1
    41    29    30   ar
    42    30    31   ar
    43    31    32   ar
    44    32    33   ar
    45    40    35   ar
    46    47    43    1
    47    12     4   ar
    48    33    29   ar
    49    11     7   ar
    50    17    13    1
    51    25    26    1
    52    20    21    1
@<TRIPOS>MOLECULE
*****
 47 52 0 0 0
SMALL
GASTEIGER

@<TRIPOS>ATOM
      1 N          64.6073   91.3618   14.3032 N.am    1  UNL1       -0.2721
      2 C          64.3290   90.8212   15.6744 C.2     1  UNL1        0.2492
      3 O          64.4864   91.7058   16.8755 O.2     1  UNL1       -0.2699
      4 C          63.8934   89.3959   15.8445 C.ar    1  UNL1        0.0567
      5 C          63.1667   88.9771   17.0881 C.ar    1  UNL1        0.0063
      6 C          62.7311   87.5519   17.2582 C.ar    1  UNL1        0.0225
      7 C          63.0222   86.5455   16.1847 C.ar    1  UNL1        0.1202
      8 N          62.7183   85.0808   16.0730 N.ar    1  UNL1       -0.1946
      9 C          63.2572   84.5944   14.7604 C.ar    1  UNL1        0.2924
     10 O          63.8942   85.7584   14.0609 O.2     1  UNL1       -0.4237
     11 C          63.7489   86.9642   14.9412 C.ar    1  UNL1        0.1662
     12 C          64.1845   88.3894   14.7711 C.ar    1  UNL1        0.0437
     13 N          63.1738   83.1904   14.2388 N.pl3   1  UNL1       -0.2636
     14 C          62.0961   82.1956   14.5534 C.3     1  UNL1        0.0951
     15 C          62.4097   80.9251   13.8201 C.3     1  UNL1        0.0233
     16 C          63.6812   81.1349   13.0524 C.3     1  UNL1        0.0233
     17 C          64.1534   82.5350   13.3112 C.3     1  UNL1        0.0951
     18 C          64.4499   90.4772   13.1021 C.3     1  UNL1        0.1246
     19 C          63.1582   90.4708   12.3394 C.3     1  UNL1        0.1484
     20 O          61.8999   89.9900   12.9993 O.3     1  UNL1       -0.3810
     21 H          62.0951   89.7217   13.9108 H       1  UNL1        0.2105
     22 C          63.1249   90.9451   10.9167 C.3     1  UNL1        0.1075
     23 O          60.2227   90.2853   10.5399 O.2     1  UNL1       -0.2264
     24 C          61.2536   89.6781    9.6349 C.2     1  UNL1        0.4020
     25 N          62.7047   90.0080    9.8234 N.am    1  UNL1       -0.2695
     26 H          63.3812   89.6096    9.2295 H       1  UNL1        0.1528
     27 O          60.8333   88.7411    8.5416 O.3     1  UNL1       -0.4291
     28 C          60.4076   87.3420    8.8753 C.3     1  UNL1        0.2447
     29 C          61.4170   86.3490    9.3707 C.ar    1  UNL1        0.0714
     30 C          62.4487   85.6496    8.5362 C.ar    1  UNL1        0.1053
     31 N          63.2411   84.7494    9.4371 N.ar    1  UNL1       -0.2350
     32 C          62.6991   84.8925   10.8285 C.ar    1  UNL1        0.1343
     33 S          61.5717   85.8811   10.7874 S.2     1  UNL1       -0.0652
     34 C          63.5119   92.3564   10.5874 C.3     1  UNL1        0.0485
     35 C          64.9588   92.7214   10.4360 C.ar    1  UNL1       -0.0204
     36 C          65.9956   91.6440   10.3164 C.ar    1  UNL1       -0.0042
     37 C          67.4426   92.0090   10.1649 C.ar    1  UNL1       -0.0003
     38 C          67.8529   93.4514   10.1331 C.ar    1  UNL1       -0.0000
     39 C          66.8162   94.5289   10.2528 C.ar    1  UNL1       -0.0003
     40 C          65.3691   94.1639   10.4042 C.ar    1  UNL1       -0.0042
     41 C          65.0429   92.7871   14.1330 C.3     1  UNL1        0.1111
     42 C          66.4608   93.0979   13.7551 C.3     1  UNL1        0.0939
     43 N          67.5448   93.0300   14.7896 N.3     1  UNL1       -0.2712
     44 C          68.0531   91.7847   15.4536 C.3     1  UNL1        0.0722
     45 C          69.1333   92.1805   16.4161 C.3     1  UNL1        0.0188
     46 C          69.2926   93.6704   16.3469 C.3     1  UNL1        0.0188
     47 C          68.3109   94.1954   15.3417 C.3     1  UNL1        0.0722
@<TRIPOS>BOND
     1    23    24    2
     2    24    25   am
     3    25    22    1
     4    22    34    1
     5    34    35    1
     6    35    36   ar
     7    36    37   ar
     8    37    38   ar
     9    38    39   ar
    10    39    40   ar
    11    22    19    1
    12    19    20    1
    13    19    18    1
    14    18     1    1
    15     1    41    1
    16    41    42    1
    17    42    43    1
    18    43    44    1
    19    44    45    1
    20    45    46    1
    21    46    47    1
    22     1     2   am
    23     2     3    2
    24     2     4    1
    25     4     5   ar
    26     5     6   ar
    27     6     7   ar
    28     7     8   ar
    29     8     9   ar
    30     9    13    1
    31    13    14    1
    32    14    15    1
    33    15    16    1
    34    16    17    1
    35     9    10   ar
    36    10    11   ar
    37    11    12   ar
    38    24    27    1
    39    27    28    1
    40    28    29    1
    41    29    30   ar
    42    30    31   ar
    43    31    32   ar
    44    32    33   ar
    45    40    35   ar
    46    47    43    1
    47    12     4   ar
    48    33    29   ar
    49    11     7   ar
    50    17    13    1
    51    25    26    1
    52    20    21    1
@<TRIPOS>MOLECULE
*****
 47 52 0 0 0
SMALL
GASTEIGER

@<TRIPOS>ATOM
      1 N          60.0252   89.1792    8.1091 N.am    1  UNL1       -0.2721
      2 C          59.8057   87.6999    7.9940 C.2     1  UNL1        0.2492
      3 O          58.6256   87.1738    7.2320 O.2     1  UNL1       -0.2699
      4 C          60.7663   86.7465    8.6409 C.ar    1  UNL1        0.0567
      5 C          61.6968   85.9295    7.7942 C.ar    1  UNL1        0.0063
      6 C          62.6573   84.9762    8.4411 C.ar    1  UNL1        0.0225
      7 C          62.6874   84.8399    9.9346 C.ar    1  UNL1        0.1202
      8 N          63.5190   83.9890   10.8482 N.ar    1  UNL1       -0.1946
      9 C          63.1025   84.2803   12.2595 C.ar    1  UNL1        0.2924
     10 O          62.0135   85.3110   12.2181 O.2     1  UNL1       -0.4237
     11 C          61.7570   85.6569   10.7812 C.ar    1  UNL1        0.1662
     12 C          60.7965   86.6102   10.1343 C.ar    1  UNL1        0.0437
     13 N          63.6745   83.6511   13.4953 N.pl3   1  UNL1       -0.2636
     14 C          63.0049   82.6140   14.3474 C.3     1  UNL1        0.0951
     15 C          63.9331   82.2706   15.4747 C.3     1  UNL1        0.0233
     16 C          65.1762   83.0955   15.3192 C.3     1  UNL1        0.0233
     17 C          65.0163   83.9488   14.0958 C.3     1  UNL1        0.0951
     18 C          61.2053   89.7053    8.8711 C.3     1  UNL1        0.1246
     19 C          61.0537   90.0989   10.3106 C.3     1  UNL1        0.1484
     20 O          59.7318   89.9300   10.9991 O.3     1  UNL1       -0.3810
     21 H          59.0883   89.5571   10.3764 H       1  UNL1        0.2105
     22 C          62.2240   90.6614   11.0616 C.3     1  UNL1        0.1075
     23 O          63.3499   88.5105   12.8241 O.2     1  UNL1       -0.2264
     24 C          62.7224   89.7285   13.4347 C.2     1  UNL1        0.4020
     25 N          62.1595   90.8039   12.5535 N.am    1  UNL1       -0.2695
     26 H          61.7476   91.6033   12.9542 H       1  UNL1        0.1528
     27 O          62.6579   89.8710   14.9265 O.3     1  UNL1       -0.4291
     28 C          63.6535   89.1571   15.7919 C.3     1  UNL1        0.2447
     29 C          63.2798   87.8649   16.4558 C.ar    1  UNL1        0.0714
     30 C          62.6166   87.7205   17.7935 C.ar    1  UNL1        0.1053
     31 N          62.4306   86.2567   18.0630 N.ar    1  UNL1       -0.2350
     32 C          62.9787   85.4964   16.8918 C.ar    1  UNL1        0.1343
     33 S          63.5036   86.4904   15.8985 S.2     1  UNL1       -0.0652
     34 C          63.4589   91.0812   10.3208 C.3     1  UNL1        0.0485
     35 C          64.4373   92.0185   10.9644 C.ar    1  UNL1       -0.0204
     36 C          64.9296   91.7495   12.3556 C.ar    1  UNL1       -0.0042
     37 C          65.9080   92.6868   12.9992 C.ar    1  UNL1       -0.0003
     38 C          66.3941   93.8930   12.2517 C.ar    1  UNL1       -0.0000
     39 C          65.9019   94.1619   10.8606 C.ar    1  UNL1       -0.0003
     40 C          64.9234   93.2246   10.2169 C.ar    1  UNL1       -0.0042
     41 C          59.0646   90.1326    7.4622 C.3     1  UNL1        0.1111
     42 C          58.7934   90.0404    5.9899 C.3     1  UNL1        0.0939
     43 N          59.4620   90.9923    5.0430 N.3     1  UNL1       -0.2712
     44 C          60.9268   91.0340    4.7226 C.3     1  UNL1        0.0722
     45 C          61.1534   92.1373    3.7319 C.3     1  UNL1        0.0188
     46 C          59.8286   92.7774    3.4400 C.3     1  UNL1        0.0188
     47 C          58.7833   92.0698    4.2504 C.3     1  UNL1        0.0722
@<TRIPOS>BOND
     1    23    24    2
     2    24    25   am
     3    25    22    1
     4    22    34    1
     5    34    35    1
     6    35    36   ar
     7    36    37   ar
     8    37    38   ar
     9    38    39   ar
    10    39    40   ar
    11    22    19    1
    12    19    20    1
    13    19    18    1
    14    18     1    1
    15     1    41    1
    16    41    42    1
    17    42    43    1
    18    43    44    1
    19    44    45    1
    20    45    46    1
    21    46    47    1
    22     1     2   am
    23     2     3    2
    24     2     4    1
    25     4     5   ar
    26     5     6   ar
    27     6     7   ar
    28     7     8   ar
    29     8     9   ar
    30     9    13    1
    31    13    14    1
    32    14    15    1
    33    15    16    1
    34    16    17    1
    35     9    10   ar
    36    10    11   ar
    37    11    12   ar
    38    24    27    1
    39    27    28    1
    40    28    29    1
    41    29    30   ar
    42    30    31   ar
    43    31    32   ar
    44    32    33   ar
    45    40    35   ar
    46    47    43    1
    47    12     4   ar
    48    33    29   ar
    49    11     7   ar
    50    17    13    1
    51    25    26    1
    52    20    21    1
@<TRIPOS>MOLECULE
*****
 47 52 0 0 0
SMALL
GASTEIGER

@<TRIPOS>ATOM
      1 N          64.1192   90.6050   15.3616 N.am    1  UNL1       -0.2721
      2 C          63.7166   89.6413   16.4382 C.2     1  UNL1        0.2492
      3 O          63.5389   90.1227   17.8477 O.2     1  UNL1       -0.2699
      4 C          63.4916   88.1960   16.1054 C.ar    1  UNL1        0.0567
      5 C          62.9898   87.2532   17.1585 C.ar    1  UNL1        0.0063
      6 C          62.7649   85.8080   16.8256 C.ar    1  UNL1        0.0225
      7 C          63.0418   85.3057   15.4396 C.ar    1  UNL1        0.1202
      8 N          62.9152   83.9449   14.8213 N.ar    1  UNL1       -0.1946
      9 C          63.3388   84.0468   13.3860 C.ar    1  UNL1        0.2924
     10 O          63.7272   85.4705   13.1173 O.2     1  UNL1       -0.4237
     11 C          63.5436   86.2485   14.3865 C.ar    1  UNL1        0.1662
     12 C          63.7685   87.6937   14.7194 C.ar    1  UNL1        0.0437
     13 N          63.3689   82.9224   12.3935 N.pl3   1  UNL1       -0.2636
     14 C          64.0292   82.9523   11.0470 C.3     1  UNL1        0.0951
     15 C          63.8122   81.6191   10.3947 C.3     1  UNL1        0.0233
     16 C          63.0179   80.7652   11.3381 C.3     1  UNL1        0.0233
     17 C          62.7439   81.5708   12.5735 C.3     1  UNL1        0.0951
     18 C          64.2969   90.1235   13.9522 C.3     1  UNL1        0.1246
     19 C          63.1851   90.2859   12.9584 C.3     1  UNL1        0.1484
     20 O          61.7572   90.2209   13.4131 O.3     1  UNL1       -0.3810
     21 H          61.7295   90.0697   14.3709 H       1  UNL1        0.2105
     22 C          63.5013   90.5132   11.5098 C.3     1  UNL1        0.1075
     23 O          61.9524   87.9442   11.4720 O.2     1  UNL1       -0.2264
     24 C          61.6715   89.0045   10.4487 C.2     1  UNL1        0.4020
     25 N          62.4459   90.2890   10.4676 N.am    1  UNL1       -0.2695
     26 H          62.2615   90.9849    9.7961 H       1  UNL1        0.1528
     27 O          60.6162   88.7802    9.4066 O.3     1  UNL1       -0.4291
     28 C          60.1086   87.3943    9.1393 C.3     1  UNL1        0.2447
     29 C          60.9764   86.4032    8.4217 C.ar    1  UNL1        0.0714
     30 C          62.3647   85.9970    8.8186 C.ar    1  UNL1        0.1053
     31 N          62.8546   84.9871    7.8234 N.ar    1  UNL1       -0.2350
     32 C          61.7689   84.7693    6.8115 C.ar    1  UNL1        0.1343
     33 S          60.6082   85.6444    7.1813 S.2     1  UNL1       -0.0652
     34 C          64.8727   90.9647   11.1033 C.3     1  UNL1        0.0485
     35 C          65.2755   92.3979   11.2870 C.ar    1  UNL1       -0.0204
     36 C          65.0900   93.3785   10.1671 C.ar    1  UNL1       -0.0042
     37 C          65.4928   94.8117   10.3508 C.ar    1  UNL1       -0.0003
     38 C          66.0812   95.2643   11.6542 C.ar    1  UNL1       -0.0000
     39 C          66.2667   94.2837   12.7740 C.ar    1  UNL1       -0.0003
     40 C          65.8639   92.8505   12.5904 C.ar    1  UNL1       -0.0042
     41 C          64.3442   92.0502   15.6945 C.3     1  UNL1        0.1111
     42 C          65.5180   92.4518   16.5375 C.3     1  UNL1        0.0939
     43 N          66.8879   92.5231   15.9305 N.3     1  UNL1       -0.2712
     44 C          67.8742   93.6391   16.1087 C.3     1  UNL1        0.0722
     45 C          69.1078   93.2967   15.3271 C.3     1  UNL1        0.0188
     46 C          68.8838   91.9690   14.6658 C.3     1  UNL1        0.0188
     47 C          67.5119   91.4910   15.0388 C.3     1  UNL1        0.0722
@<TRIPOS>BOND
     1    23    24    2
     2    24    25   am
     3    25    22    1
     4    22    34    1
     5    34    35    1
     6    35    36   ar
     7    36    37   ar
     8    37    38   ar
     9    38    39   ar
    10    39    40   ar
    11    22    19    1
    12    19    20    1
    13    19    18    1
    14    18     1    1
    15     1    41    1
    16    41    42    1
    17    42    43    1
    18    43    44    1
    19    44    45    1
    20    45    46    1
    21    46    47    1
    22     1     2   am
    23     2     3    2
    24     2     4    1
    25     4     5   ar
    26     5     6   ar
    27     6     7   ar
    28     7     8   ar
    29     8     9   ar
    30     9    13    1
    31    13    14    1
    32    14    15    1
    33    15    16    1
    34    16    17    1
    35     9    10   ar
    36    10    11   ar
    37    11    12   ar
    38    24    27    1
    39    27    28    1
    40    28    29    1
    41    29    30   ar
    42    30    31   ar
    43    31    32   ar
    44    32    33   ar
    45    40    35   ar
    46    47    43    1
    47    12     4   ar
    48    33    29   ar
    49    11     7   ar
    50    17    13    1
    51    25    26    1
    52    20    21    1
@<TRIPOS>MOLECULE
*****
 47 52 0 0 0
SMALL
GASTEIGER

@<TRIPOS>ATOM
      1 N          63.9384   90.4107   14.8887 N.am    1  UNL1       -0.2721
      2 C          63.7188   89.6220   16.1455 C.2     1  UNL1        0.2492
      3 O          63.8271   90.2947   17.4818 O.2     1  UNL1       -0.2699
      4 C          63.3907   88.1604   16.0660 C.ar    1  UNL1        0.0567
      5 C          62.8173   87.4545   17.2589 C.ar    1  UNL1        0.0063
      6 C          62.4894   85.9930   17.1794 C.ar    1  UNL1        0.0225
      7 C          62.7348   85.2374   15.9070 C.ar    1  UNL1        0.1202
      8 N          62.5122   83.8017   15.5334 N.ar    1  UNL1       -0.1946
      9 C          62.9480   83.6205   14.1096 C.ar    1  UNL1        0.2924
     10 O          63.4400   84.9440   13.6033 O.2     1  UNL1       -0.4237
     11 C          63.3082   85.9433   14.7142 C.ar    1  UNL1        0.1662
     12 C          63.6361   87.4048   14.7937 C.ar    1  UNL1        0.0437
     13 N          62.9004   82.3404   13.3291 N.pl3   1  UNL1       -0.2636
     14 C          63.1897   82.1892   11.8650 C.3     1  UNL1        0.0951
     15 C          63.0231   80.7421   11.5068 C.3     1  UNL1        0.0233
     16 C          62.6309   79.9991   12.7493 C.3     1  UNL1        0.0233
     17 C          62.5550   80.9869   13.8757 C.3     1  UNL1        0.0951
     18 C          63.8301   89.7380   13.5524 C.3     1  UNL1        0.1246
     19 C          62.6467   90.0072   12.6709 C.3     1  UNL1        0.1484
     20 O          61.2575   89.7903   13.1935 O.3     1  UNL1       -0.3810
     21 H          61.3022   89.4776   14.1106 H       1  UNL1        0.2105
     22 C          62.8524   90.4934   11.2669 C.3     1  UNL1        0.1075
     23 O          61.6041   88.1579    9.8573 O.2     1  UNL1       -0.2264
     24 C          61.0478   89.5371    9.6611 C.2     1  UNL1        0.4020
     25 N          61.6720   90.7049   10.3658 N.am    1  UNL1       -0.2695
     26 H          61.3069   91.6101   10.2370 H       1  UNL1        0.1528
     27 O          59.8674   89.7485    8.7600 O.3     1  UNL1       -0.4291
     28 C          59.9244   89.2968    7.3308 C.3     1  UNL1        0.2447
     29 C          59.5147   90.2319    6.2318 C.ar    1  UNL1        0.0714
     30 C          60.4396   90.9463    5.2915 C.ar    1  UNL1        0.1053
     31 N          59.6048   91.7727    4.3587 N.ar    1  UNL1       -0.2350
     32 C          58.1639   91.5690    4.7225 C.ar    1  UNL1        0.1343
     33 S          58.1082   90.6168    5.8801 S.2     1  UNL1       -0.0652
     34 C          64.2386   90.7682   10.7640 C.3     1  UNL1        0.0485
     35 C          64.8798   92.0995   11.0218 C.ar    1  UNL1       -0.0204
     36 C          65.6815   92.3165   12.2709 C.ar    1  UNL1       -0.0042
     37 C          66.3227   93.6478   12.5288 C.ar    1  UNL1       -0.0003
     38 C          66.1622   94.7621   11.5375 C.ar    1  UNL1       -0.0000
     39 C          65.3606   94.5451   10.2884 C.ar    1  UNL1       -0.0003
     40 C          64.7193   93.2138   10.0305 C.ar    1  UNL1       -0.0042
     41 C          64.2665   91.8723   14.9682 C.3     1  UNL1        0.1111
     42 C          65.2159   92.3720   16.0165 C.3     1  UNL1        0.0939
     43 N          66.6833   92.4602   15.7185 N.3     1  UNL1       -0.2712
     44 C          67.5773   93.6245   16.0272 C.3     1  UNL1        0.0722
     45 C          68.9609   93.2834   15.5590 C.3     1  UNL1        0.0188
     46 C          68.9221   91.9083   14.9609 C.3     1  UNL1        0.0188
     47 C          67.5144   91.3996   15.0595 C.3     1  UNL1        0.0722
@<TRIPOS>BOND
     1    23    24    2
     2    24    25   am
     3    25    22    1
     4    22    34    1
     5    34    35    1
     6    35    36   ar
     7    36    37   ar
     8    37    38   ar
     9    38    39   ar
    10    39    40   ar
    11    22    19    1
    12    19    20    1
    13    19    18    1
    14    18     1    1
    15     1    41    1
    16    41    42    1
    17    42    43    1
    18    43    44    1
    19    44    45    1
    20    45    46    1
    21    46    47    1
    22     1     2   am
    23     2     3    2
    24     2     4    1
    25     4     5   ar
    26     5     6   ar
    27     6     7   ar
    28     7     8   ar
    29     8     9   ar
    30     9    13    1
    31    13    14    1
    32    14    15    1
    33    15    16    1
    34    16    17    1
    35     9    10   ar
    36    10    11   ar
    37    11    12   ar
    38    24    27    1
    39    27    28    1
    40    28    29    1
    41    29    30   ar
    42    30    31   ar
    43    31    32   ar
    44    32    33   ar
    45    40    35   ar
    46    47    43    1
    47    12     4   ar
    48    33    29   ar
    49    11     7   ar
    50    17    13    1
    51    25    26    1
    52    20    21    1
