@<TRIPOS>MOLECULE
*****
 30 33 0 0 0
SMALL
GASTEIGER

@<TRIPOS>ATOM
      1 N          64.2085   91.1910   12.2519 N.am    1  UNL1       -0.2723
      2 C          65.2447   92.2680   12.3795 C.2     1  UNL1        0.2685
      3 O          65.5007   93.2020   11.2341 O.2     1  UNL1       -0.2682
      4 C          62.9086   86.4484   18.0682 C.3     1  UNL1        0.0896
      5 N          63.1646   87.3824   16.9227 N.3     1  UNL1       -0.2715
      6 C          62.9050   88.8598   16.9147 C.3     1  UNL1        0.0722
      7 C          63.3051   89.3935   15.5712 C.3     1  UNL1        0.0190
      8 C          63.3919   90.6364   14.7359 C.3     1  UNL1        0.0213
      9 C          63.9525   90.2570   13.3974 C.3     1  UNL1        0.0761
     10 C          64.2122   88.7798   13.4053 C.3     1  UNL1        0.0213
     11 C          63.8121   88.2460   14.7488 C.3     1  UNL1        0.0190
     12 C          63.7252   87.0031   15.5842 C.3     1  UNL1        0.0722
     13 C          66.0249   92.4111   13.6527 C.ar    1  UNL1        0.1535
     14 C          67.5029   92.2077   13.8085 C.ar    1  UNL1        0.1012
     15 N          67.8556   92.4536   15.2456 N.ar    1  UNL1       -0.3057
     16 C          69.2274   92.3605   15.8452 C.3     1  UNL1        0.1321
     17 C          66.5956   92.8088   15.9779 C.ar    1  UNL1        0.1787
     18 N          65.4642   92.7825   14.9933 N.ar    1  UNL1       -0.2192
     19 C          63.4283   91.0480   10.9788 C.3     1  UNL1        0.1205
     20 C          62.2967   90.0666   10.8988 C.ar    1  UNL1        0.0007
     21 C          61.0254   90.3247   11.6520 C.ar    1  UNL1       -0.0024
     22 C          59.8939   89.3433   11.5720 C.ar    1  UNL1        0.0028
     23 C          60.0337   88.1037   10.7388 C.ar    1  UNL1        0.0372
     24 C          61.3050   87.8457    9.9857 C.ar    1  UNL1        0.1465
     25 C          62.4365   88.8271   10.0657 C.ar    1  UNL1        0.0346
     26 O          61.4447   86.6062    9.1527 O.3     1  UNL1       -0.4045
     27 C          62.4627   85.5672    9.5189 C.3     1  UNL1        0.5753
     28 F          63.4807   84.5282    9.8851 F       1  UNL1       -0.1328
     29 F          63.2521   85.9074    8.2896 F       1  UNL1       -0.1328
     30 F          61.6733   85.2270   10.7481 F       1  UNL1       -0.1328
@<TRIPOS>BOND
     1     4     5    1
     2     5     6    1
     3     7     6    1
     4     7     8    1
     5     8     9    1
     6     9     1    1
     7     1    19    1
     8    19    20    1
     9    20    21   ar
    10    21    22   ar
    11    22    23   ar
    12    23    24   ar
    13    24    26    1
    14    26    27    1
    15    27    28    1
    16    27    29    1
    17    27    30    1
    18    24    25   ar
    19     1     2   am
    20     2     3    2
    21     2    13    1
    22    13    14   ar
    23    14    15   ar
    24    15    16    1
    25    15    17   ar
    26    17    18   ar
    27     9    10    1
    28    11    10    1
    29    11    12    1
    30    12     5    1
    31    11     7    1
    32    25    20   ar
    33    18    13   ar
@<TRIPOS>MOLECULE
*****
 30 33 0 0 0
SMALL
GASTEIGER

@<TRIPOS>ATOM
      1 N          63.9837   90.4965   14.2815 N.am    1  UNL1       -0.2723
      2 C          65.1621   91.4084   14.1090 C.2     1  UNL1        0.2685
      3 O          65.9549   91.8439   15.3056 O.2     1  UNL1       -0.2682
      4 C          59.9581   88.2847    8.2059 C.3     1  UNL1        0.0896
      5 N          60.7509   88.7203    9.4024 N.3     1  UNL1       -0.2715
      6 C          61.9447   88.0143    9.9738 C.3     1  UNL1        0.0722
      7 C          62.4207   88.7960   11.1622 C.3     1  UNL1        0.0190
      8 C          63.4527   88.8428   12.2498 C.3     1  UNL1        0.0213
      9 C          63.1909   90.0609   13.0850 C.3     1  UNL1        0.0761
     10 C          61.9972   90.7669   12.5137 C.3     1  UNL1        0.0213
     11 C          61.5212   89.9852   11.3253 C.3     1  UNL1        0.0190
     12 C          60.4892   89.9384   10.2377 C.3     1  UNL1        0.0722
     13 C          65.5478   91.8847   12.7399 C.ar    1  UNL1        0.1535
     14 C          66.9392   91.9287   12.1812 C.ar    1  UNL1        0.1012
     15 N          66.8610   92.4719   10.7851 N.ar    1  UNL1       -0.3057
     16 C          68.0192   92.6859    9.8562 C.3     1  UNL1        0.1321
     17 C          65.4214   92.7635   10.4811 C.ar    1  UNL1        0.1787
     18 N          64.6098   92.4005   11.6892 N.ar    1  UNL1       -0.2192
     19 C          63.5981   90.0202   15.6506 C.3     1  UNL1        0.1205
     20 C          63.5688   88.5513   15.9531 C.ar    1  UNL1        0.0007
     21 C          62.8867   88.0544   17.1932 C.ar    1  UNL1       -0.0024
     22 C          62.8574   86.5855   17.4956 C.ar    1  UNL1        0.0028
     23 C          63.5102   85.6135   16.5580 C.ar    1  UNL1        0.0372
     24 C          64.1924   86.1104   15.3179 C.ar    1  UNL1        0.1465
     25 C          64.2217   87.5793   15.0155 C.ar    1  UNL1        0.0346
     26 O          64.8452   85.1385   14.3804 O.3     1  UNL1       -0.4045
     27 C          64.0059   84.1743   13.5956 C.3     1  UNL1        0.5753
     28 F          63.1665   83.2102   12.8108 F       1  UNL1       -0.1328
     29 F          63.6017   85.2814   12.6677 F       1  UNL1       -0.1328
     30 F          64.4100   83.0672   14.5235 F       1  UNL1       -0.1328
@<TRIPOS>BOND
     1     4     5    1
     2     5     6    1
     3     7     6    1
     4     7     8    1
     5     8     9    1
     6     9     1    1
     7     1    19    1
     8    19    20    1
     9    20    21   ar
    10    21    22   ar
    11    22    23   ar
    12    23    24   ar
    13    24    26    1
    14    26    27    1
    15    27    28    1
    16    27    29    1
    17    27    30    1
    18    24    25   ar
    19     1     2   am
    20     2     3    2
    21     2    13    1
    22    13    14   ar
    23    14    15   ar
    24    15    16    1
    25    15    17   ar
    26    17    18   ar
    27     9    10    1
    28    11    10    1
    29    11    12    1
    30    12     5    1
    31    11     7    1
    32    25    20   ar
    33    18    13   ar
@<TRIPOS>MOLECULE
*****
 30 33 0 0 0
SMALL
GASTEIGER

@<TRIPOS>ATOM
      1 N          64.1922   84.5564   14.0148 N.am    1  UNL1       -0.2723
      2 C          64.0097   83.2430   14.7158 C.2     1  UNL1        0.2685
      3 O          64.6441   83.0134   16.0555 O.2     1  UNL1       -0.2682
      4 C          60.9708   85.7224    7.2123 C.3     1  UNL1        0.0896
      5 N          61.6052   85.4928    8.5520 N.3     1  UNL1       -0.2715
      6 C          61.1228   86.0420    9.8618 C.3     1  UNL1        0.0722
      7 C          62.0529   85.5623   10.9364 C.3     1  UNL1        0.0190
      8 C          62.3296   85.6052   12.4100 C.3     1  UNL1        0.0213
      9 C          63.5578   84.7861   12.6751 C.3     1  UNL1        0.0761
     10 C          64.0402   84.2368   11.3654 C.3     1  UNL1        0.0213
     11 C          63.1102   84.7165   10.2907 C.3     1  UNL1        0.0190
     12 C          62.8335   84.6736    8.8171 C.3     1  UNL1        0.0722
     13 C          63.1926   82.1591   14.0772 C.ar    1  UNL1        0.1535
     14 C          63.6632   81.2099   13.0153 C.ar    1  UNL1        0.1012
     15 N          62.5229   80.2984   12.6703 N.ar    1  UNL1       -0.3057
     16 C          62.5527   79.1947   11.6548 C.3     1  UNL1        0.1321
     17 C          61.3478   80.6842   13.5189 C.ar    1  UNL1        0.1787
     18 N          61.7618   81.8342   14.3884 N.ar    1  UNL1       -0.2192
     19 C          65.0092   85.6402   14.6534 C.3     1  UNL1        0.1205
     20 C          64.3291   86.8163   15.2892 C.ar    1  UNL1        0.0007
     21 C          63.5657   86.6399   16.5683 C.ar    1  UNL1       -0.0024
     22 C          62.8855   87.8160   17.2041 C.ar    1  UNL1        0.0028
     23 C          62.9688   89.1685   16.5607 C.ar    1  UNL1        0.0372
     24 C          63.7322   89.3449   15.2816 C.ar    1  UNL1        0.1465
     25 C          64.4123   88.1688   14.6458 C.ar    1  UNL1        0.0346
     26 O          63.8154   90.6973   14.6383 O.3     1  UNL1       -0.4045
     27 C          65.0934   91.1430   13.9918 C.3     1  UNL1        0.5753
     28 F          66.3715   91.5886   13.3453 F       1  UNL1       -0.1328
     29 F          64.4779   90.9447   12.6383 F       1  UNL1       -0.1328
     30 F          65.7090   91.3412   15.3452 F       1  UNL1       -0.1328
@<TRIPOS>BOND
     1     4     5    1
     2     5     6    1
     3     7     6    1
     4     7     8    1
     5     8     9    1
     6     9     1    1
     7     1    19    1
     8    19    20    1
     9    20    21   ar
    10    21    22   ar
    11    22    23   ar
    12    23    24   ar
    13    24    26    1
    14    26    27    1
    15    27    28    1
    16    27    29    1
    17    27    30    1
    18    24    25   ar
    19     1     2   am
    20     2     3    2
    21     2    13    1
    22    13    14   ar
    23    14    15   ar
    24    15    16    1
    25    15    17   ar
    26    17    18   ar
    27     9    10    1
    28    11    10    1
    29    11    12    1
    30    12     5    1
    31    11     7    1
    32    25    20   ar
    33    18    13   ar
@<TRIPOS>MOLECULE
*****
 30 33 0 0 0
SMALL
GASTEIGER

@<TRIPOS>ATOM
      1 N          64.3508   91.4071   12.2865 N.am    1  UNL1       -0.2723
      2 C          65.3943   92.4673   12.4786 C.2     1  UNL1        0.2685
      3 O          65.6879   93.4395   11.3746 O.2     1  UNL1       -0.2682
      4 C          62.8601   86.4709   17.8921 C.3     1  UNL1        0.0896
      5 N          63.1537   87.4430   16.7881 N.3     1  UNL1       -0.2715
      6 C          63.7806   87.1128   15.4660 C.3     1  UNL1        0.0722
      7 C          63.8862   88.3817   14.6732 C.3     1  UNL1        0.0190
      8 C          64.3390   88.9619   13.3661 C.3     1  UNL1        0.0213
      9 C          64.0572   90.4349   13.3905 C.3     1  UNL1        0.0761
     10 C          63.4304   90.7653   14.7125 C.3     1  UNL1        0.0213
     11 C          63.3247   89.4963   15.5053 C.3     1  UNL1        0.0190
     12 C          62.8719   88.9161   16.8124 C.3     1  UNL1        0.0722
     13 C          66.1442   92.5555   13.7747 C.ar    1  UNL1        0.1535
     14 C          67.6196   92.3533   13.9552 C.ar    1  UNL1        0.1012
     15 N          67.9376   92.5342   15.4100 N.ar    1  UNL1       -0.3057
     16 C          69.2959   92.4210   16.0362 C.3     1  UNL1        0.1321
     17 C          66.6589   92.8482   16.1284 C.ar    1  UNL1        0.1787
     18 N          65.5506   92.8614   15.1178 N.ar    1  UNL1       -0.2192
     19 C          63.6009   91.3189   10.9904 C.3     1  UNL1        0.1205
     20 C          62.4966   90.3167   10.8295 C.ar    1  UNL1        0.0007
     21 C          62.7090   89.0958    9.9843 C.ar    1  UNL1       -0.0024
     22 C          61.6046   88.0936    9.8235 C.ar    1  UNL1        0.0028
     23 C          60.2878   88.3123   10.5078 C.ar    1  UNL1        0.0372
     24 C          60.0754   89.5332   11.3529 C.ar    1  UNL1        0.1465
     25 C          61.1798   90.5354   11.5138 C.ar    1  UNL1        0.0346
     26 O          58.7586   89.7518   12.0372 O.3     1  UNL1       -0.4045
     27 C          58.4385   89.0115   13.3019 C.3     1  UNL1        0.5753
     28 F          58.1184   88.2711   14.5665 F       1  UNL1       -0.1328
     29 F          57.0732   88.6920   12.7692 F       1  UNL1       -0.1328
     30 F          59.8039   89.3310   13.8345 F       1  UNL1       -0.1328
@<TRIPOS>BOND
     1     4     5    1
     2     5     6    1
     3     7     6    1
     4     7     8    1
     5     8     9    1
     6     9     1    1
     7     1    19    1
     8    19    20    1
     9    20    21   ar
    10    21    22   ar
    11    22    23   ar
    12    23    24   ar
    13    24    26    1
    14    26    27    1
    15    27    28    1
    16    27    29    1
    17    27    30    1
    18    24    25   ar
    19     1     2   am
    20     2     3    2
    21     2    13    1
    22    13    14   ar
    23    14    15   ar
    24    15    16    1
    25    15    17   ar
    26    17    18   ar
    27     9    10    1
    28    11    10    1
    29    11    12    1
    30    12     5    1
    31    11     7    1
    32    25    20   ar
    33    18    13   ar
@<TRIPOS>MOLECULE
*****
 30 33 0 0 0
SMALL
GASTEIGER

@<TRIPOS>ATOM
      1 N          61.6427   88.4931   11.3616 N.am    1  UNL1       -0.2723
      2 C          60.9954   88.7077   10.0256 C.2     1  UNL1        0.2685
      3 O          60.4923   90.0688    9.6458 O.2     1  UNL1       -0.2682
      4 C          64.1977   81.5819   13.2897 C.3     1  UNL1        0.0896
      5 N          63.6945   82.9430   12.9100 N.3     1  UNL1       -0.2715
      6 C          64.2304   84.2520   13.4092 C.3     1  UNL1        0.0722
      7 C          63.4342   85.3521   12.7721 C.3     1  UNL1        0.0190
      8 C          63.2733   86.8410   12.6869 C.3     1  UNL1        0.0213
      9 C          62.1459   87.1320   11.7413 C.3     1  UNL1        0.0761
     10 C          61.6100   85.8231   11.2421 C.3     1  UNL1        0.0213
     11 C          62.4062   84.7230   11.8791 C.3     1  UNL1        0.0190
     12 C          62.5671   83.2341   11.9644 C.3     1  UNL1        0.0722
     13 C          60.8513   87.5610    9.0692 C.ar    1  UNL1        0.1535
     14 C          61.9740   86.7757    8.4587 C.ar    1  UNL1        0.1012
     15 N          61.3756   85.7277    7.5677 N.ar    1  UNL1       -0.3057
     16 C          62.1362   84.7191    6.7588 C.3     1  UNL1        0.1321
     17 C          59.8832   85.8655    7.6276 C.ar    1  UNL1        0.1787
     18 N          59.5592   86.9985    8.5556 N.ar    1  UNL1       -0.2192
     19 C          61.7869   89.6397   12.3178 C.3     1  UNL1        0.1205
     20 C          62.9729   90.5529   12.2206 C.ar    1  UNL1        0.0007
     21 C          63.4411   91.0339   10.8792 C.ar    1  UNL1       -0.0024
     22 C          64.6272   91.9471   10.7820 C.ar    1  UNL1        0.0028
     23 C          65.3451   92.3791   12.0262 C.ar    1  UNL1        0.0372
     24 C          64.8768   91.8981   13.3676 C.ar    1  UNL1        0.1465
     25 C          63.6908   90.9849   13.4648 C.ar    1  UNL1        0.0346
     26 O          65.5947   92.3301   14.6118 O.3     1  UNL1       -0.4045
     27 C          67.0870   92.4819   14.6023 C.3     1  UNL1        0.5753
     28 F          68.5792   92.6337   14.5928 F       1  UNL1       -0.1328
     29 F          67.2390   90.9924   14.6925 F       1  UNL1       -0.1328
     30 F          66.9349   93.9714   14.5120 F       1  UNL1       -0.1328
@<TRIPOS>BOND
     1     4     5    1
     2     5     6    1
     3     7     6    1
     4     7     8    1
     5     8     9    1
     6     9     1    1
     7     1    19    1
     8    19    20    1
     9    20    21   ar
    10    21    22   ar
    11    22    23   ar
    12    23    24   ar
    13    24    26    1
    14    26    27    1
    15    27    28    1
    16    27    29    1
    17    27    30    1
    18    24    25   ar
    19     1     2   am
    20     2     3    2
    21     2    13    1
    22    13    14   ar
    23    14    15   ar
    24    15    16    1
    25    15    17   ar
    26    17    18   ar
    27     9    10    1
    28    11    10    1
    29    11    12    1
    30    12     5    1
    31    11     7    1
    32    25    20   ar
    33    18    13   ar
@<TRIPOS>MOLECULE
*****
 30 33 0 0 0
SMALL
GASTEIGER

@<TRIPOS>ATOM
      1 N          62.6277   89.0059   12.3241 N.am    1  UNL1       -0.2723
      2 C          61.9581   89.4412   11.0544 C.2     1  UNL1        0.2685
      3 O          61.6847   90.8959   10.8114 O.2     1  UNL1       -0.2682
      4 C          64.0160   81.6193   13.5582 C.3     1  UNL1        0.0896
      5 N          63.7426   83.0740   13.3152 N.3     1  UNL1       -0.2715
      6 C          62.7724   83.6342   12.3177 C.3     1  UNL1        0.0722
      7 C          62.8215   85.1304   12.4130 C.3     1  UNL1        0.0190
      8 C          62.2523   86.4012   11.8554 C.3     1  UNL1        0.0213
      9 C          62.9011   87.5511   12.5671 C.3     1  UNL1        0.0761
     10 C          63.8713   86.9911   13.5646 C.3     1  UNL1        0.0213
     11 C          63.8221   85.4949   13.4693 C.3     1  UNL1        0.0190
     12 C          64.3914   84.2241   14.0269 C.3     1  UNL1        0.0722
     13 C          61.5618   88.4218   10.0277 C.ar    1  UNL1        0.1535
     14 C          60.1797   88.2077    9.4857 C.ar    1  UNL1        0.1012
     15 N          60.2419   87.0912    8.4858 N.ar    1  UNL1       -0.3057
     16 C          59.0864   86.5461    7.6998 C.3     1  UNL1        0.1321
     17 C          61.6624   86.6154    8.4101 C.ar    1  UNL1        0.1787
     18 N          62.4781   87.4378    9.3630 N.ar    1  UNL1       -0.2192
     19 C          63.0239   90.0252   13.3506 C.3     1  UNL1        0.1205
     20 C          64.2867   90.8153   13.1746 C.ar    1  UNL1        0.0007
     21 C          64.4992   91.6218   11.9277 C.ar    1  UNL1       -0.0024
     22 C          65.7620   92.4119   11.7516 C.ar    1  UNL1        0.0028
     23 C          66.8123   92.3956   12.8224 C.ar    1  UNL1        0.0372
     24 C          66.5999   91.5892   14.0692 C.ar    1  UNL1        0.1465
     25 C          65.3370   90.7991   14.2453 C.ar    1  UNL1        0.0346
     26 O          67.6502   91.5730   15.1399 O.3     1  UNL1       -0.4045
     27 C          68.2064   92.8634   15.6646 C.3     1  UNL1        0.5753
     28 F          68.7626   94.1539   16.1893 F       1  UNL1       -0.1328
     29 F          69.4355   92.6748   14.8256 F       1  UNL1       -0.1328
     30 F          66.9773   93.0521   16.5035 F       1  UNL1       -0.1328
@<TRIPOS>BOND
     1     4     5    1
     2     5     6    1
     3     7     6    1
     4     7     8    1
     5     8     9    1
     6     9     1    1
     7     1    19    1
     8    19    20    1
     9    20    21   ar
    10    21    22   ar
    11    22    23   ar
    12    23    24   ar
    13    24    26    1
    14    26    27    1
    15    27    28    1
    16    27    29    1
    17    27    30    1
    18    24    25   ar
    19     1     2   am
    20     2     3    2
    21     2    13    1
    22    13    14   ar
    23    14    15   ar
    24    15    16    1
    25    15    17   ar
    26    17    18   ar
    27     9    10    1
    28    11    10    1
    29    11    12    1
    30    12     5    1
    31    11     7    1
    32    25    20   ar
    33    18    13   ar
@<TRIPOS>MOLECULE
*****
 30 33 0 0 0
SMALL
GASTEIGER

@<TRIPOS>ATOM
      1 N          61.8059   88.5418   11.4410 N.am    1  UNL1       -0.2723
      2 C          61.2137   88.7668   10.0814 C.2     1  UNL1        0.2685
      3 O          60.7612   90.1389    9.6781 O.2     1  UNL1       -0.2682
      4 C          64.1036   81.5748   13.4885 C.3     1  UNL1        0.0896
      5 N          63.6511   82.9469   13.0853 N.3     1  UNL1       -0.2715
      6 C          64.2711   84.2424   13.5179 C.3     1  UNL1        0.0722
      7 C          63.5023   85.3606   12.8786 C.3     1  UNL1        0.0190
      8 C          63.4104   86.8523   12.7509 C.3     1  UNL1        0.0213
      9 C          62.2584   87.1697   11.8442 C.3     1  UNL1        0.0761
     10 C          61.6384   85.8743   11.4115 C.3     1  UNL1        0.0213
     11 C          62.4071   84.7561   12.0508 C.3     1  UNL1        0.0190
     12 C          62.4991   83.2644   12.1786 C.3     1  UNL1        0.0722
     13 C          61.0740   87.6198    9.1249 C.ar    1  UNL1        0.1535
     14 C          62.1943   86.7822    8.5830 C.ar    1  UNL1        0.1012
     15 N          61.6021   85.7537    7.6656 N.ar    1  UNL1       -0.3057
     16 C          62.3626   84.7070    6.9065 C.3     1  UNL1        0.1321
     17 C          60.1159   85.9556    7.6406 C.ar    1  UNL1        0.1787
     18 N          59.7896   87.1089    8.5425 N.ar    1  UNL1       -0.2192
     19 C          61.9456   89.6889   12.3974 C.3     1  UNL1        0.1205
     20 C          63.2320   90.4573   12.4641 C.ar    1  UNL1        0.0007
     21 C          64.0342   90.4683   13.7316 C.ar    1  UNL1       -0.0024
     22 C          65.3207   91.2368   13.7984 C.ar    1  UNL1        0.0028
     23 C          65.8050   91.9942   12.5976 C.ar    1  UNL1        0.0372
     24 C          65.0029   91.9832   11.3302 C.ar    1  UNL1        0.1465
     25 C          63.7164   91.2148   11.2634 C.ar    1  UNL1        0.0346
     26 O          65.4872   92.7407   10.1295 O.3     1  UNL1       -0.4045
     27 C          66.3816   93.9320   10.3049 C.3     1  UNL1        0.5753
     28 F          67.2761   95.1233   10.4803 F       1  UNL1       -0.1328
     29 F          65.2196   94.7287   10.8196 F       1  UNL1       -0.1328
     30 F          67.5437   93.1353    9.7902 F       1  UNL1       -0.1328
@<TRIPOS>BOND
     1     4     5    1
     2     5     6    1
     3     7     6    1
     4     7     8    1
     5     8     9    1
     6     9     1    1
     7     1    19    1
     8    19    20    1
     9    20    21   ar
    10    21    22   ar
    11    22    23   ar
    12    23    24   ar
    13    24    26    1
    14    26    27    1
    15    27    28    1
    16    27    29    1
    17    27    30    1
    18    24    25   ar
    19     1     2   am
    20     2     3    2
    21     2    13    1
    22    13    14   ar
    23    14    15   ar
    24    15    16    1
    25    15    17   ar
    26    17    18   ar
    27     9    10    1
    28    11    10    1
    29    11    12    1
    30    12     5    1
    31    11     7    1
    32    25    20   ar
    33    18    13   ar
@<TRIPOS>MOLECULE
*****
 30 33 0 0 0
SMALL
GASTEIGER

@<TRIPOS>ATOM
      1 N          62.0596   87.3245   10.5363 N.am    1  UNL1       -0.2723
      2 C          60.5817   87.4818   10.3337 C.2     1  UNL1        0.2685
      3 O          59.8525   86.5700    9.3920 O.2     1  UNL1       -0.2682
      4 C          65.7622   91.9544   15.3181 C.3     1  UNL1        0.0896
      5 N          65.0330   91.0426   14.3764 N.3     1  UNL1       -0.2715
      6 C          64.4784   91.4210   13.0350 C.3     1  UNL1        0.0722
      7 C          63.8330   90.2046   12.4403 C.3     1  UNL1        0.0190
      8 C          63.0914   89.6866   11.2437 C.3     1  UNL1        0.0213
      9 C          62.7888   88.2363   11.4781 C.3     1  UNL1        0.0761
     10 C          63.3433   87.8579   12.8193 C.3     1  UNL1        0.0213
     11 C          63.9887   89.0743   13.4141 C.3     1  UNL1        0.0190
     12 C          64.7303   89.5923   14.6107 C.3     1  UNL1        0.0722
     13 C          59.8330   88.5510   11.0729 C.ar    1  UNL1        0.1535
     14 C          59.6677   89.9758   10.6338 C.ar    1  UNL1        0.1012
     15 N          58.8506   90.6884   11.6705 N.ar    1  UNL1       -0.3057
     16 C          58.4445   92.1319   11.6339 C.3     1  UNL1        0.1321
     17 C          58.5109   89.7040   12.7501 C.ar    1  UNL1        0.1787
     18 N          59.1181   88.3831   12.3807 N.ar    1  UNL1       -0.2192
     19 C          62.8083   86.2554    9.7972 C.3     1  UNL1        0.1205
     20 C          63.0390   84.9201   10.4403 C.ar    1  UNL1        0.0007
     21 C          63.7085   83.8216    9.6687 C.ar    1  UNL1       -0.0024
     22 C          63.9392   82.4863   10.3119 C.ar    1  UNL1        0.0028
     23 C          63.5004   82.2494   11.7266 C.ar    1  UNL1        0.0372
     24 C          62.8309   83.3478   12.4981 C.ar    1  UNL1        0.1465
     25 C          62.6002   84.6831   11.8550 C.ar    1  UNL1        0.0346
     26 O          62.3921   83.1108   13.9127 O.3     1  UNL1       -0.4045
     27 C          62.9162   83.9811   15.0163 C.3     1  UNL1        0.5753
     28 F          63.4403   84.8514   16.1199 F       1  UNL1       -0.1328
     29 F          61.5365   84.5242   15.2433 F       1  UNL1       -0.1328
     30 F          64.2959   83.4380   14.7894 F       1  UNL1       -0.1328
@<TRIPOS>BOND
     1     4     5    1
     2     5     6    1
     3     7     6    1
     4     7     8    1
     5     8     9    1
     6     9     1    1
     7     1    19    1
     8    19    20    1
     9    20    21   ar
    10    21    22   ar
    11    22    23   ar
    12    23    24   ar
    13    24    26    1
    14    26    27    1
    15    27    28    1
    16    27    29    1
    17    27    30    1
    18    24    25   ar
    19     1     2   am
    20     2     3    2
    21     2    13    1
    22    13    14   ar
    23    14    15   ar
    24    15    16    1
    25    15    17   ar
    26    17    18   ar
    27     9    10    1
    28    11    10    1
    29    11    12    1
    30    12     5    1
    31    11     7    1
    32    25    20   ar
    33    18    13   ar
@<TRIPOS>MOLECULE
*****
 30 33 0 0 0
SMALL
GASTEIGER

@<TRIPOS>ATOM
      1 N          63.9797   85.0482   13.9438 N.am    1  UNL1       -0.2723
      2 C          63.8610   83.7395   14.6670 C.2     1  UNL1        0.2685
      3 O          64.5991   83.5247   15.9551 O.2     1  UNL1       -0.2682
      4 C          60.2319   86.1386    7.4035 C.3     1  UNL1        0.0896
      5 N          60.9700   85.9239    8.6915 N.3     1  UNL1       -0.2715
      6 C          62.2539   85.1660    8.8562 C.3     1  UNL1        0.0722
      7 C          62.6312   85.2030   10.3075 C.3     1  UNL1        0.0190
      8 C          63.6578   84.7575   11.3063 C.3     1  UNL1        0.0213
      9 C          63.2416   85.2630   12.6557 C.3     1  UNL1        0.0761
     10 C          61.9577   86.0209   12.4911 C.3     1  UNL1        0.0213
     11 C          61.5804   85.9838   11.0398 C.3     1  UNL1        0.0190
     12 C          60.5538   86.4293   10.0411 C.3     1  UNL1        0.0722
     13 C          63.0042   82.6454   14.1022 C.ar    1  UNL1        0.1535
     14 C          61.6865   82.1849   14.6515 C.ar    1  UNL1        0.1012
     15 N          61.1827   81.0747   13.7776 N.ar    1  UNL1       -0.3057
     16 C          59.8981   80.3222   13.9610 C.3     1  UNL1        0.1321
     17 C          62.1889   80.8491   12.6884 C.ar    1  UNL1        0.1787
     18 N          63.3147   81.8199   12.8890 N.ar    1  UNL1       -0.2192
     19 C          64.8364   86.1422   14.5087 C.3     1  UNL1        0.1205
     20 C          64.2379   87.4845   14.8085 C.ar    1  UNL1        0.0007
     21 C          63.7679   87.8029   16.1970 C.ar    1  UNL1       -0.0024
     22 C          63.1693   89.1452   16.4969 C.ar    1  UNL1        0.0028
     23 C          63.0407   90.1691   15.4082 C.ar    1  UNL1        0.0372
     24 C          63.5107   89.8507   14.0198 C.ar    1  UNL1        0.1465
     25 C          64.1093   88.5084   13.7200 C.ar    1  UNL1        0.0346
     26 O          63.3821   90.8747   12.9313 O.3     1  UNL1       -0.4045
     27 C          62.6641   90.5315   11.6598 C.3     1  UNL1        0.5753
     28 F          61.9460   90.1883   10.3883 F       1  UNL1       -0.1328
     29 F          63.8272   91.0454   10.8642 F       1  UNL1       -0.1328
     30 F          61.5009   90.0175   12.4554 F       1  UNL1       -0.1328
@<TRIPOS>BOND
     1     4     5    1
     2     5     6    1
     3     7     6    1
     4     7     8    1
     5     8     9    1
     6     9     1    1
     7     1    19    1
     8    19    20    1
     9    20    21   ar
    10    21    22   ar
    11    22    23   ar
    12    23    24   ar
    13    24    26    1
    14    26    27    1
    15    27    28    1
    16    27    29    1
    17    27    30    1
    18    24    25   ar
    19     1     2   am
    20     2     3    2
    21     2    13    1
    22    13    14   ar
    23    14    15   ar
    24    15    16    1
    25    15    17   ar
    26    17    18   ar
    27     9    10    1
    28    11    10    1
    29    11    12    1
    30    12     5    1
    31    11     7    1
    32    25    20   ar
    33    18    13   ar
