@<TRIPOS>MOLECULE
*****
 29 31 0 0 0
SMALL
GASTEIGER

@<TRIPOS>ATOM
      1 C          63.8675   84.9617   13.6958 C.ar    1  UNL1        0.0951
      2 C          63.6732   83.4811   13.8377 C.ar    1  UNL1        0.1454
      3 F          64.2736   82.7544   15.0045 F       1  UNL1       -0.2040
      4 C          62.8786   82.7273   12.8129 C.ar    1  UNL1        0.0312
      5 C          62.2782   83.4540   11.6461 C.ar    1  UNL1        0.0204
      6 C          62.4725   84.9347   11.5042 C.ar    1  UNL1        0.0920
      7 C          63.2672   85.6885   12.5291 C.ar    1  UNL1        0.1598
      8 F          63.4614   87.1691   12.3871 F       1  UNL1       -0.2026
      9 C          64.6622   85.7155   14.7207 C.2     1  UNL1        0.2036
     10 O          66.1403   85.4890   14.8389 O.2     1  UNL1       -0.2863
     11 C          64.6217   90.5852   14.6934 C.2     1  UNL1        0.0716
     12 C          63.7943   91.1667   15.8011 C.2     1  UNL1        0.2401
     13 N          63.0905   90.2601   16.7669 N.2     1  UNL1       -0.0304
     14 C          63.2141   88.7720   16.6250 C.2     1  UNL1        0.3721
     15 N          62.6399   87.6368   17.4196 N.2     1  UNL1       -0.0307
     16 C          63.1124   86.3536   16.8030 C.2     1  UNL1        0.2390
     17 C          63.9787   86.6958   15.6272 C.2     1  UNL1        0.0896
     18 C          64.0416   88.1905   15.5172 C.2     1  UNL1        0.0781
     19 C          64.7454   89.0971   14.5514 C.3     1  UNL1        0.0731
     20 C          66.0293   92.3984   12.7618 C.1     1  UNL1       -0.0094
     21 C          65.3255   91.4918   13.7276 C.1     1  UNL1       -0.0514
     22 N          61.8721   85.6614   10.3374 N.pl3   1  UNL1       -0.2166
     23 H          61.6723   85.1756    9.5048 H       1  UNL1        0.1734
     24 S          61.5762   87.1284   10.4392 S.O2    1  UNL1        0.0540
     25 O          62.5648   87.4038    9.3454 O.2     1  UNL1       -0.1545
     26 O          60.5875   86.8530   11.5331 O.2     1  UNL1       -0.1545
     27 C          61.2801   88.5954   10.5411 C.3     1  UNL1        0.1724
     28 C          62.3203   89.5998   10.1422 C.3     1  UNL1        0.0273
     29 C          62.9140   90.5142   11.1724 C.3     1  UNL1        0.0019
@<TRIPOS>BOND
     1    20    21    3
     2    21    11    1
     3    11    12    2
     4    12    13    1
     5    13    14    2
     6    14    15    1
     7    15    16    2
     8    16    17    1
     9    17     9    1
    10     9    10    2
    11     9     1    1
    12     1     2   ar
    13     2     3    1
    14     2     4   ar
    15     4     5   ar
    16     5     6   ar
    17     6    22    1
    18    22    24    1
    19    24    25    2
    20    24    26    2
    21    24    27    1
    22    27    28    1
    23    28    29    1
    24     6     7   ar
    25     7     8    1
    26    17    18    2
    27    18    19    1
    28    19    11    1
    29    18    14    1
    30     7     1   ar
    31    22    23    1
@<TRIPOS>MOLECULE
*****
 29 31 0 0 0
SMALL
GASTEIGER

@<TRIPOS>ATOM
      1 C          63.7277   85.2587   13.4017 C.ar    1  UNL1        0.0951
      2 C          63.4603   83.7871   13.2889 C.ar    1  UNL1        0.1454
      3 F          63.9970   82.8457   14.3260 F       1  UNL1       -0.2040
      4 C          62.6562   83.2569   12.1390 C.ar    1  UNL1        0.0312
      5 C          62.1195   84.1983   11.1018 C.ar    1  UNL1        0.0204
      6 C          62.3869   85.6700   11.2146 C.ar    1  UNL1        0.0920
      7 C          63.1910   86.2003   12.3645 C.ar    1  UNL1        0.1598
      8 F          63.4584   87.6719   12.4773 F       1  UNL1       -0.2026
      9 C          64.5318   85.7890   14.5516 C.2     1  UNL1        0.2036
     10 O          65.9539   85.3498   14.7380 O.2     1  UNL1       -0.2863
     11 C          64.6735   90.6545   14.7045 C.2     1  UNL1        0.0716
     12 C          63.9029   91.2233   15.8588 C.2     1  UNL1        0.2401
     13 N          63.1955   90.3070   16.8127 N.2     1  UNL1       -0.0304
     14 C          63.2587   88.8218   16.6123 C.2     1  UNL1        0.3721
     15 N          62.6669   87.6790   17.3827 N.2     1  UNL1       -0.0307
     16 C          63.0717   86.4037   16.7045 C.2     1  UNL1        0.2390
     17 C          63.9138   86.7585   15.5150 C.2     1  UNL1        0.0896
     18 C          64.0293   88.2530   15.4580 C.2     1  UNL1        0.0781
     19 C          64.7368   89.1693   14.5041 C.3     1  UNL1        0.0731
     20 C          66.0884   92.4871   12.7967 C.1     1  UNL1       -0.0094
     21 C          65.3810   91.5708   13.7506 C.1     1  UNL1       -0.0514
     22 N          61.8502   86.6114   10.1775 N.pl3   1  UNL1       -0.2166
     23 H          61.7117   87.5607   10.3989 H       1  UNL1        0.1734
     24 S          61.5245   86.1066    8.8031 S.O2    1  UNL1        0.0540
     25 O          62.9798   85.8400    8.5561 O.2     1  UNL1       -0.1545
     26 O          60.0692   86.3731    9.0500 O.2     1  UNL1       -0.1545
     27 C          61.1988   85.6017    7.4286 C.3     1  UNL1        0.1724
     28 C          62.2089   84.7960    6.6667 C.3     1  UNL1        0.0273
     29 C          61.8150   84.1124    5.3910 C.3     1  UNL1        0.0019
@<TRIPOS>BOND
     1    20    21    3
     2    21    11    1
     3    11    12    2
     4    12    13    1
     5    13    14    2
     6    14    15    1
     7    15    16    2
     8    16    17    1
     9    17     9    1
    10     9    10    2
    11     9     1    1
    12     1     2   ar
    13     2     3    1
    14     2     4   ar
    15     4     5   ar
    16     5     6   ar
    17     6    22    1
    18    22    24    1
    19    24    25    2
    20    24    26    2
    21    24    27    1
    22    27    28    1
    23    28    29    1
    24     6     7   ar
    25     7     8    1
    26    17    18    2
    27    18    19    1
    28    19    11    1
    29    18    14    1
    30     7     1   ar
    31    22    23    1
@<TRIPOS>MOLECULE
*****
 29 31 0 0 0
SMALL
GASTEIGER

@<TRIPOS>ATOM
      1 C          62.5007   89.1852   11.4091 C.ar    1  UNL1        0.0951
      2 C          62.5259   90.3452   10.4585 C.ar    1  UNL1        0.1454
      3 F          61.6579   90.3315    9.2353 F       1  UNL1       -0.2040
      4 C          63.4191   91.5190   10.7311 C.ar    1  UNL1        0.0312
      5 C          64.2872   91.5328   11.9544 C.ar    1  UNL1        0.0204
      6 C          64.2619   90.3727   12.9050 C.ar    1  UNL1        0.0920
      7 C          63.3687   89.1989   12.6324 C.ar    1  UNL1        0.1598
      8 F          63.3435   88.0389   13.5830 F       1  UNL1       -0.2026
      9 C          61.6074   88.0114   11.1364 C.2     1  UNL1        0.2036
     10 O          60.2084   87.9920   11.6771 O.2     1  UNL1       -0.2863
     11 C          63.5881   83.7779   12.5041 C.2     1  UNL1        0.0716
     12 C          63.9551   82.9042   11.3414 C.2     1  UNL1        0.2401
     13 N          63.6992   83.3741    9.9401 N.2     1  UNL1       -0.0304
     14 C          63.0763   84.7176    9.7015 C.2     1  UNL1        0.3721
     15 N          62.7071   85.4434    8.4417 N.2     1  UNL1       -0.0307
     16 C          62.1119   86.7656    8.8259 C.2     1  UNL1        0.2390
     17 C          62.1133   86.8570   10.3231 C.2     1  UNL1        0.0896
     18 C          62.7093   85.5912   10.8642 C.2     1  UNL1        0.0781
     19 C          62.9652   85.1214   12.2656 C.3     1  UNL1        0.0731
     20 C          64.0999   82.8381   15.3068 C.1     1  UNL1       -0.0094
     21 C          63.8440   83.3080   13.9055 C.1     1  UNL1       -0.0514
     22 N          65.1299   90.3865   14.1282 N.pl3   1  UNL1       -0.2166
     23 H          65.3059   89.5498   14.6164 H       1  UNL1        0.1734
     24 S          65.7299   91.6750   14.6077 S.O2    1  UNL1        0.0540
     25 O          64.4749   91.9747   15.3726 O.2     1  UNL1       -0.1545
     26 O          66.9849   91.3752   13.8428 O.2     1  UNL1       -0.1545
     27 C          66.3299   92.9635   15.0871 C.3     1  UNL1        0.1724
     28 C          67.4208   92.9455   16.1165 C.3     1  UNL1        0.0273
     29 C          68.6884   93.7116   15.8794 C.3     1  UNL1        0.0019
@<TRIPOS>BOND
     1    20    21    3
     2    21    11    1
     3    11    12    2
     4    12    13    1
     5    13    14    2
     6    14    15    1
     7    15    16    2
     8    16    17    1
     9    17     9    1
    10     9    10    2
    11     9     1    1
    12     1     2   ar
    13     2     3    1
    14     2     4   ar
    15     4     5   ar
    16     5     6   ar
    17     6    22    1
    18    22    24    1
    19    24    25    2
    20    24    26    2
    21    24    27    1
    22    27    28    1
    23    28    29    1
    24     6     7   ar
    25     7     8    1
    26    17    18    2
    27    18    19    1
    28    19    11    1
    29    18    14    1
    30     7     1   ar
    31    22    23    1
@<TRIPOS>MOLECULE
*****
 29 31 0 0 0
SMALL
GASTEIGER

@<TRIPOS>ATOM
      1 C          62.3290   88.2350   11.1817 C.ar    1  UNL1        0.0951
      2 C          61.3501   87.6182   10.2271 C.ar    1  UNL1        0.1454
      3 F          60.5794   88.4870    9.2777 F       1  UNL1       -0.2040
      4 C          61.1420   86.1327   10.2217 C.ar    1  UNL1        0.0312
      5 C          61.9127   85.2640   11.1711 C.ar    1  UNL1        0.0204
      6 C          62.8916   85.8808   12.1258 C.ar    1  UNL1        0.0920
      7 C          63.0997   87.3663   12.1311 C.ar    1  UNL1        0.1598
      8 F          64.0786   87.9830   13.0858 F       1  UNL1       -0.2026
      9 C          62.5371   89.7205   11.1870 C.2     1  UNL1        0.2036
     10 O          62.1205   90.5404   10.0021 O.2     1  UNL1       -0.2863
     11 C          66.1051   93.0219   11.4816 C.2     1  UNL1        0.0716
     12 C          66.4172   93.4172   12.8945 C.2     1  UNL1        0.2401
     13 N          65.6545   92.8035   14.0310 N.2     1  UNL1       -0.0304
     14 C          64.5796   91.7945   13.7546 C.2     1  UNL1        0.3721
     15 N          63.6670   91.0256   14.6634 N.2     1  UNL1       -0.0307
     16 C          62.7908   90.1551   13.8123 C.2     1  UNL1        0.2390
     17 C          63.1618   90.3859   12.3773 C.2     1  UNL1        0.0896
     18 C          64.2674   91.3992   12.3417 C.2     1  UNL1        0.0781
     19 C          65.0302   92.0128   11.2052 C.3     1  UNL1        0.0731
     20 C          67.6306   94.2492    9.2086 C.1     1  UNL1       -0.0094
     21 C          66.8678   93.6355   10.3451 C.1     1  UNL1       -0.0514
     22 N          63.6623   85.0120   13.0751 N.pl3   1  UNL1       -0.2166
     23 H          64.6277   85.1575   13.2022 H       1  UNL1        0.1734
     24 S          62.9622   83.9217   13.8307 S.O2    1  UNL1        0.0540
     25 O          63.6625   82.8923   12.9943 O.2     1  UNL1       -0.1545
     26 O          62.2618   84.9511   14.6672 O.2     1  UNL1       -0.1545
     27 C          62.2620   82.8314   14.5864 C.3     1  UNL1        0.1724
     28 C          62.0507   81.4915   13.9461 C.3     1  UNL1        0.0273
     29 C          60.7354   80.7867   14.0979 C.3     1  UNL1        0.0019
@<TRIPOS>BOND
     1    20    21    3
     2    21    11    1
     3    11    12    2
     4    12    13    1
     5    13    14    2
     6    14    15    1
     7    15    16    2
     8    16    17    1
     9    17     9    1
    10     9    10    2
    11     9     1    1
    12     1     2   ar
    13     2     3    1
    14     2     4   ar
    15     4     5   ar
    16     5     6   ar
    17     6    22    1
    18    22    24    1
    19    24    25    2
    20    24    26    2
    21    24    27    1
    22    27    28    1
    23    28    29    1
    24     6     7   ar
    25     7     8    1
    26    17    18    2
    27    18    19    1
    28    19    11    1
    29    18    14    1
    30     7     1   ar
    31    22    23    1
@<TRIPOS>MOLECULE
*****
 29 31 0 0 0
SMALL
GASTEIGER

@<TRIPOS>ATOM
      1 C          62.3490   88.1161   11.9824 C.ar    1  UNL1        0.0951
      2 C          61.3479   87.8754   10.8916 C.ar    1  UNL1        0.1454
      3 F          60.5412   89.0175   10.3487 F       1  UNL1       -0.2040
      4 C          61.1535   86.4926   10.3437 C.ar    1  UNL1        0.0312
      5 C          61.9602   85.3505   10.8866 C.ar    1  UNL1        0.0204
      6 C          62.9613   85.5912   11.9774 C.ar    1  UNL1        0.0920
      7 C          63.1557   86.9739   12.5253 C.ar    1  UNL1        0.1598
      8 F          64.1568   87.2145   13.6161 F       1  UNL1       -0.2026
      9 C          62.5434   89.4988   12.5303 C.2     1  UNL1        0.2036
     10 O          62.0478   89.8374   13.9049 O.2     1  UNL1       -0.2863
     11 C          66.2239   92.4984   13.6129 C.2     1  UNL1        0.0716
     12 C          66.6015   93.3930   12.4696 C.2     1  UNL1        0.2401
     13 N          65.8626   93.2984   11.1676 N.2     1  UNL1       -0.0304
     14 C          64.7463   92.3092   11.0089 C.2     1  UNL1        0.3721
     15 N          63.8443   91.9904    9.8536 N.2     1  UNL1       -0.0307
     16 C          62.9093   90.8989   10.2828 C.2     1  UNL1        0.2390
     17 C          63.2334   90.5430   11.7035 C.2     1  UNL1        0.0896
     18 C          64.3688   91.4146   12.1522 C.2     1  UNL1        0.0781
     19 C          65.1076   91.5093   13.4542 C.3     1  UNL1        0.0731
     20 C          67.7015   92.6877   16.2169 C.1     1  UNL1       -0.0094
     21 C          66.9627   92.5931   14.9149 C.1     1  UNL1       -0.0514
     22 N          63.7680   84.4490   12.5203 N.pl3   1  UNL1       -0.2166
     23 H          64.7165   84.5810   12.7486 H       1  UNL1        0.1734
     24 S          63.1295   83.1058   12.7155 S.O2    1  UNL1        0.0540
     25 O          63.8835   82.5755   11.5323 O.2     1  UNL1       -0.1545
     26 O          62.3754   83.6362   13.8987 O.2     1  UNL1       -0.1545
     27 C          62.4909   81.7626   12.9106 C.3     1  UNL1        0.1724
     28 C          61.7289   81.4703   14.1691 C.3     1  UNL1        0.0273
     29 C          60.4716   80.6541   14.1122 C.3     1  UNL1        0.0019
@<TRIPOS>BOND
     1    20    21    3
     2    21    11    1
     3    11    12    2
     4    12    13    1
     5    13    14    2
     6    14    15    1
     7    15    16    2
     8    16    17    1
     9    17     9    1
    10     9    10    2
    11     9     1    1
    12     1     2   ar
    13     2     3    1
    14     2     4   ar
    15     4     5   ar
    16     5     6   ar
    17     6    22    1
    18    22    24    1
    19    24    25    2
    20    24    26    2
    21    24    27    1
    22    27    28    1
    23    28    29    1
    24     6     7   ar
    25     7     8    1
    26    17    18    2
    27    18    19    1
    28    19    11    1
    29    18    14    1
    30     7     1   ar
    31    22    23    1
@<TRIPOS>MOLECULE
*****
 29 31 0 0 0
SMALL
GASTEIGER

@<TRIPOS>ATOM
      1 C          64.4244   91.0370   13.5020 C.ar    1  UNL1        0.0951
      2 C          64.7166   91.2315   14.9603 C.ar    1  UNL1        0.1454
      3 F          63.9512   90.4530   15.9888 F       1  UNL1       -0.2040
      4 C          65.7743   92.2045   15.3900 C.ar    1  UNL1        0.0312
      5 C          66.5398   92.9830   14.3614 C.ar    1  UNL1        0.0204
      6 C          66.2475   92.7884   12.9030 C.ar    1  UNL1        0.0920
      7 C          65.1898   91.8155   12.4733 C.ar    1  UNL1        0.1598
      8 F          64.8976   91.6210   11.0149 F       1  UNL1       -0.2026
      9 C          63.3667   90.0640   13.0722 C.2     1  UNL1        0.2036
     10 O          62.1223   90.5590   12.3966 O.2     1  UNL1       -0.2863
     11 C          61.9304   86.1944   10.4879 C.2     1  UNL1        0.0716
     12 C          62.3386   84.8931   11.1124 C.2     1  UNL1        0.2401
     13 N          63.1074   84.8879   12.4004 N.2     1  UNL1       -0.0304
     14 C          63.4679   86.1839   13.0639 C.2     1  UNL1        0.3721
     15 N          64.2141   86.4907   14.3285 N.2     1  UNL1       -0.0307
     16 C          64.2670   87.9815   14.4855 C.2     1  UNL1        0.2390
     17 C          63.5535   88.5962   13.3180 C.2     1  UNL1        0.0896
     18 C          63.0596   87.4852   12.4394 C.2     1  UNL1        0.0781
     19 C          62.2909   87.4904   11.1514 C.3     1  UNL1        0.0731
     20 C          60.3929   86.2048    7.9118 C.1     1  UNL1       -0.0094
     21 C          61.1616   86.1996    9.1999 C.1     1  UNL1       -0.0514
     22 N          67.0130   93.5669   11.8744 N.pl3   1  UNL1       -0.2166
     23 H          67.9627   93.3656   11.7110 H       1  UNL1        0.1734
     24 S          66.3314   94.6521   11.0948 S.O2    1  UNL1        0.0540
     25 O          66.1838   95.4608   12.3493 O.2     1  UNL1       -0.1545
     26 O          66.4789   93.8434    9.8401 O.2     1  UNL1       -0.1545
     27 C          65.6498   95.7373   10.3150 C.3     1  UNL1        0.1724
     28 C          66.4559   96.8559    9.7245 C.3     1  UNL1        0.0273
     29 C          67.3121   96.6077    8.5181 C.3     1  UNL1        0.0019
@<TRIPOS>BOND
     1    20    21    3
     2    21    11    1
     3    11    12    2
     4    12    13    1
     5    13    14    2
     6    14    15    1
     7    15    16    2
     8    16    17    1
     9    17     9    1
    10     9    10    2
    11     9     1    1
    12     1     2   ar
    13     2     3    1
    14     2     4   ar
    15     4     5   ar
    16     5     6   ar
    17     6    22    1
    18    22    24    1
    19    24    25    2
    20    24    26    2
    21    24    27    1
    22    27    28    1
    23    28    29    1
    24     6     7   ar
    25     7     8    1
    26    17    18    2
    27    18    19    1
    28    19    11    1
    29    18    14    1
    30     7     1   ar
    31    22    23    1
@<TRIPOS>MOLECULE
*****
 29 31 0 0 0
SMALL
GASTEIGER

@<TRIPOS>ATOM
      1 C          63.0941   90.2592   12.1259 C.ar    1  UNL1        0.0951
      2 C          63.8717   90.2678   13.4085 C.ar    1  UNL1        0.1454
      3 F          63.4811   89.3496   14.5285 F       1  UNL1       -0.2040
      4 C          65.0400   91.1945   13.5712 C.ar    1  UNL1        0.0312
      5 C          65.4306   92.1126   12.4512 C.ar    1  UNL1        0.0204
      6 C          64.6529   92.1040   11.1685 C.ar    1  UNL1        0.0920
      7 C          63.4847   91.1773   11.0059 C.ar    1  UNL1        0.1598
      8 F          62.7071   91.1688    9.7232 F       1  UNL1       -0.2026
      9 C          61.9258   89.3325   11.9633 C.2     1  UNL1        0.2036
     10 O          60.6766   89.5529   12.7638 O.2     1  UNL1       -0.2863
     11 C          63.3089   84.7102   12.6250 C.2     1  UNL1        0.0716
     12 C          63.2336   83.8945   11.3685 C.2     1  UNL1        0.2401
     13 N          62.7682   84.5269   10.0904 N.2     1  UNL1       -0.0304
     14 C          62.3781   85.9751   10.0689 C.2     1  UNL1        0.3721
     15 N          61.8850   86.8655    8.9670 N.2     1  UNL1       -0.0307
     16 C          61.6556   88.2316    9.5425 C.2     1  UNL1        0.2390
     17 C          62.0069   88.1855   11.0001 C.2     1  UNL1        0.0896
     18 C          62.4534   86.7909   11.3254 C.2     1  UNL1        0.0781
     19 C          62.9188   86.1584   12.6034 C.3     1  UNL1        0.0731
     20 C          64.2397   83.4454   15.1811 C.1     1  UNL1       -0.0094
     21 C          63.7743   84.0778   13.9030 C.1     1  UNL1       -0.0514
     22 N          65.0436   93.0222   10.0485 N.pl3   1  UNL1       -0.2166
     23 H          64.5546   92.9927    9.1945 H       1  UNL1        0.1734
     24 S          66.1791   93.9853   10.2297 S.O2    1  UNL1        0.0540
     25 O          67.1513   92.9136    9.8346 O.2     1  UNL1       -0.1545
     26 O          65.2070   95.0572   10.6248 O.2     1  UNL1       -0.1545
     27 C          67.3147   94.9486   10.4109 C.3     1  UNL1        0.1724
     28 C          67.2702   96.2936    9.7484 C.3     1  UNL1        0.0273
     29 C          67.3487   96.3965    8.2540 C.3     1  UNL1        0.0019
@<TRIPOS>BOND
     1    20    21    3
     2    21    11    1
     3    11    12    2
     4    12    13    1
     5    13    14    2
     6    14    15    1
     7    15    16    2
     8    16    17    1
     9    17     9    1
    10     9    10    2
    11     9     1    1
    12     1     2   ar
    13     2     3    1
    14     2     4   ar
    15     4     5   ar
    16     5     6   ar
    17     6    22    1
    18    22    24    1
    19    24    25    2
    20    24    26    2
    21    24    27    1
    22    27    28    1
    23    28    29    1
    24     6     7   ar
    25     7     8    1
    26    17    18    2
    27    18    19    1
    28    19    11    1
    29    18    14    1
    30     7     1   ar
    31    22    23    1
@<TRIPOS>MOLECULE
*****
 29 31 0 0 0
SMALL
GASTEIGER

@<TRIPOS>ATOM
      1 C          62.0506   86.9752   11.0307 C.ar    1  UNL1        0.0951
      2 C          60.8310   87.2497   10.2017 C.ar    1  UNL1        0.1454
      3 F          60.1918   86.1418    9.4182 F       1  UNL1       -0.2040
      4 C          60.2507   88.6322   10.1561 C.ar    1  UNL1        0.0312
      5 C          60.8899   89.7401   10.9396 C.ar    1  UNL1        0.0204
      6 C          62.1095   89.4655   11.7687 C.ar    1  UNL1        0.0920
      7 C          62.6898   88.0831   11.8143 C.ar    1  UNL1        0.1598
      8 F          63.9094   87.8086   12.6434 F       1  UNL1       -0.2026
      9 C          62.6309   85.5927   11.0763 C.2     1  UNL1        0.2036
     10 O          63.1985   84.9762    9.8323 O.2     1  UNL1       -0.2863
     11 C          62.7658   80.8006   11.9329 C.2     1  UNL1        0.0716
     12 C          62.7643   80.4705   13.3961 C.2     1  UNL1        0.2401
     13 N          62.7239   81.5721   14.4135 N.2     1  UNL1       -0.0304
     14 C          62.6851   83.0037   13.9676 C.2     1  UNL1        0.3721
     15 N          62.6411   84.2927   14.7335 N.2     1  UNL1       -0.0307
     16 C          62.6155   85.4194   13.7437 C.2     1  UNL1        0.2390
     17 C          62.6436   84.8269   12.3660 C.2     1  UNL1        0.0896
     18 C          62.6866   83.3338   12.5044 C.2     1  UNL1        0.0781
     19 C          62.7270   82.2323   11.4871 C.3     1  UNL1        0.0731
     20 C          62.8465   78.5975    9.8983 C.1     1  UNL1       -0.0094
     21 C          62.8062   79.6991   10.9156 C.1     1  UNL1       -0.0514
     22 N          62.7487   90.5735   12.5522 N.pl3   1  UNL1       -0.2166
     23 H          62.7543   91.4903   12.1935 H       1  UNL1        0.1734
     24 S          63.3794   90.2846   13.8821 S.O2    1  UNL1        0.0540
     25 O          64.7112   90.7174   13.3446 O.2     1  UNL1       -0.1545
     26 O          62.0477   89.8517   14.4197 O.2     1  UNL1       -0.1545
     27 C          64.0101   89.9956   15.2121 C.3     1  UNL1        0.1724
     28 C          63.1470   89.7095   16.4050 C.3     1  UNL1        0.0273
     29 C          63.1328   88.3363   17.0084 C.3     1  UNL1        0.0019
@<TRIPOS>BOND
     1    20    21    3
     2    21    11    1
     3    11    12    2
     4    12    13    1
     5    13    14    2
     6    14    15    1
     7    15    16    2
     8    16    17    1
     9    17     9    1
    10     9    10    2
    11     9     1    1
    12     1     2   ar
    13     2     3    1
    14     2     4   ar
    15     4     5   ar
    16     5     6   ar
    17     6    22    1
    18    22    24    1
    19    24    25    2
    20    24    26    2
    21    24    27    1
    22    27    28    1
    23    28    29    1
    24     6     7   ar
    25     7     8    1
    26    17    18    2
    27    18    19    1
    28    19    11    1
    29    18    14    1
    30     7     1   ar
    31    22    23    1
@<TRIPOS>MOLECULE
*****
 29 31 0 0 0
SMALL
GASTEIGER

@<TRIPOS>ATOM
      1 C          61.8631   86.8086   10.4355 C.ar    1  UNL1        0.0951
      2 C          60.7022   86.8504    9.4867 C.ar    1  UNL1        0.1454
      3 F          60.2964   85.6126    8.7430 F       1  UNL1       -0.2040
      4 C          59.9469   88.1301    9.2815 C.ar    1  UNL1        0.0312
      5 C          60.3527   89.3680   10.0252 C.ar    1  UNL1        0.0204
      6 C          61.5137   89.3261   10.9741 C.ar    1  UNL1        0.0920
      7 C          62.2689   88.0464   11.1793 C.ar    1  UNL1        0.1598
      8 F          63.4299   88.0046   12.1281 F       1  UNL1       -0.2026
      9 C          62.6183   85.5289   10.6407 C.2     1  UNL1        0.2036
     10 O          63.3303   84.8851    9.4880 O.2     1  UNL1       -0.2863
     11 C          62.7932   80.8441   11.9591 C.2     1  UNL1        0.0716
     12 C          62.8239   80.6589   13.4473 C.2     1  UNL1        0.2401
     13 N          62.7998   81.8546   14.3525 N.2     1  UNL1       -0.0304
     14 C          62.7451   83.2356   13.7696 C.2     1  UNL1        0.3721
     15 N          62.7113   84.5933   14.4065 N.2     1  UNL1       -0.0307
     16 C          62.6597   85.6176   13.3119 C.2     1  UNL1        0.2390
     17 C          62.6616   84.8930   11.9985 C.2     1  UNL1        0.0896
     18 C          62.7144   83.4209   12.2815 C.2     1  UNL1        0.0781
     19 C          62.7385   82.2251   11.3762 C.3     1  UNL1        0.0731
     20 C          62.8414   78.4525   10.1485 C.1     1  UNL1       -0.0094
     21 C          62.8173   79.6483   11.0538 C.1     1  UNL1       -0.0514
     22 N          61.9195   90.5639   11.7178 N.pl3   1  UNL1       -0.2166
     23 H          61.3039   90.9705   12.3698 H       1  UNL1        0.1734
     24 S          63.2630   91.1824   11.4681 S.O2    1  UNL1        0.0540
     25 O          63.5959   91.0474   12.9244 O.2     1  UNL1       -0.1545
     26 O          62.9302   91.3174   10.0117 O.2     1  UNL1       -0.1545
     27 C          64.6066   91.8009   11.2183 C.3     1  UNL1        0.1724
     28 C          65.4353   92.2850   12.3711 C.3     1  UNL1        0.0273
     29 C          66.8932   92.5786   12.1756 C.3     1  UNL1        0.0019
@<TRIPOS>BOND
     1    20    21    3
     2    21    11    1
     3    11    12    2
     4    12    13    1
     5    13    14    2
     6    14    15    1
     7    15    16    2
     8    16    17    1
     9    17     9    1
    10     9    10    2
    11     9     1    1
    12     1     2   ar
    13     2     3    1
    14     2     4   ar
    15     4     5   ar
    16     5     6   ar
    17     6    22    1
    18    22    24    1
    19    24    25    2
    20    24    26    2
    21    24    27    1
    22    27    28    1
    23    28    29    1
    24     6     7   ar
    25     7     8    1
    26    17    18    2
    27    18    19    1
    28    19    11    1
    29    18    14    1
    30     7     1   ar
    31    22    23    1
