@<TRIPOS>MOLECULE
*****
 30 33 0 0 0
SMALL
GASTEIGER

@<TRIPOS>ATOM
      1 N          62.0042   87.2786   10.5909 N.ar    1  UNL1       -0.2080
      2 C          62.6900   88.5449   11.0108 C.ar    1  UNL1        0.0970
      3 C          62.1565   89.6632   10.1654 C.ar    1  UNL1        0.0144
      4 C          61.1410   89.0881    9.2230 C.ar    1  UNL1        0.0186
      5 C          60.2899   89.7160    8.1593 C.ar    1  UNL1        0.0309
      6 C          59.3448   88.8701    7.3587 C.ar    1  UNL1        0.1402
      7 F          58.4936   89.4980    6.2950 F       1  UNL1       -0.2042
      8 C          59.2507   87.3963    7.6217 C.ar    1  UNL1        0.0312
      9 C          60.1018   86.7684    8.6853 C.ar    1  UNL1        0.0212
     10 C          61.0470   87.6143    9.4859 C.ar    1  UNL1        0.0824
     11 S          62.2352   85.9159   11.1736 S.O2    1  UNL1        0.0860
     12 O          62.7094   85.4251    9.8379 O.2     1  UNL1       -0.1476
     13 O          61.7611   86.4067   12.5094 O.2     1  UNL1       -0.1476
     14 C          62.9281   81.8277   12.9221 C.ar    1  UNL1       -0.0224
     15 C          62.6294   82.9884   13.8241 C.ar    1  UNL1       -0.0029
     16 C          62.3984   84.3511   13.2412 C.ar    1  UNL1        0.0201
     17 C          62.4662   84.5531   11.7564 C.ar    1  UNL1        0.1277
     18 C          62.7650   83.3924   10.8545 C.ar    1  UNL1        0.0201
     19 C          62.9959   82.0298   11.4373 C.ar    1  UNL1       -0.0029
     20 C          64.3192   80.2302   14.4264 C.3     1  UNL1        0.0047
     21 C          63.1591   80.4650   13.5049 C.3     1  UNL1        0.0224
     22 C          62.2301   79.3371   13.1662 C.3     1  UNL1        0.0047
     23 C          62.5664   91.1037   10.2479 C.3     1  UNL1        0.1008
     24 N          63.6942   91.5122   11.1487 N.3     1  UNL1       -0.2665
     25 C          63.6759   91.1227   12.5971 C.3     1  UNL1        0.0899
     26 C          64.8036   91.5311   13.4979 C.3     1  UNL1        0.0897
     27 N          65.9496   92.3291   12.9503 N.3     1  UNL1       -0.2691
     28 C          67.0773   92.7375   13.8510 C.3     1  UNL1        0.0897
     29 C          65.9679   92.7186   11.5018 C.3     1  UNL1        0.0897
     30 C          64.8402   92.3102   10.6010 C.3     1  UNL1        0.0899
@<TRIPOS>BOND
     1    20    21    1
     2    21    22    1
     3    21    14    1
     4    14    15   ar
     5    15    16   ar
     6    16    17   ar
     7    17    11    1
     8    11    12    2
     9    11    13    2
    10    11     1    1
    11     1     2   ar
    12     2     3   ar
    13     3    23    1
    14    23    24    1
    15    24    25    1
    16    25    26    1
    17    26    27    1
    18    27    28    1
    19    27    29    1
    20    29    30    1
    21     3     4   ar
    22     4     5   ar
    23     5     6   ar
    24     6     7    1
    25     6     8   ar
    26     8     9   ar
    27     9    10   ar
    28    17    18   ar
    29    18    19   ar
    30    19    14   ar
    31    10     1   ar
    32    30    24    1
    33    10     4   ar
@<TRIPOS>MOLECULE
*****
 30 33 0 0 0
SMALL
GASTEIGER

@<TRIPOS>ATOM
      1 N          63.4407   87.6695   13.3400 N.ar    1  UNL1       -0.2080
      2 C          63.8295   88.4011   14.5904 C.ar    1  UNL1        0.0970
      3 C          63.8945   89.8650   14.2697 C.ar    1  UNL1        0.0144
      4 C          63.5458   90.0381   12.8211 C.ar    1  UNL1        0.0186
      5 C          63.4475   91.2560   11.9511 C.ar    1  UNL1        0.0309
      6 C          63.0686   91.1170   10.5064 C.ar    1  UNL1        0.1402
      7 F          62.9703   92.3349    9.6363 F       1  UNL1       -0.2042
      8 C          62.7882   89.7601    9.9318 C.ar    1  UNL1        0.0312
      9 C          62.8865   88.5422   10.8019 C.ar    1  UNL1        0.0212
     10 C          63.2654   88.6812   12.2465 C.ar    1  UNL1        0.0824
     11 S          63.2591   86.1866   13.2065 S.O2    1  UNL1        0.0860
     12 O          62.1783   86.4103   12.1909 O.2     1  UNL1       -0.1476
     13 O          64.3400   85.9627   14.2221 O.2     1  UNL1       -0.1476
     14 C          62.7145   81.7376   12.8063 C.ar    1  UNL1       -0.0224
     15 C          62.6265   82.3855   14.1562 C.ar    1  UNL1       -0.0029
     16 C          62.8081   83.8685   14.2896 C.ar    1  UNL1        0.0201
     17 C          63.0776   84.7035   13.0730 C.ar    1  UNL1        0.1277
     18 C          63.1655   84.0556   11.7231 C.ar    1  UNL1        0.0201
     19 C          62.9840   82.5727   11.5897 C.ar    1  UNL1       -0.0029
     20 C          62.1154   79.4402   13.8612 C.3     1  UNL1        0.0047
     21 C          62.5330   80.2546   12.6728 C.3     1  UNL1        0.0224
     22 C          62.7690   79.5860   11.3509 C.3     1  UNL1        0.0047
     23 C          64.2464   90.9630   15.2292 C.3     1  UNL1        0.1008
     24 N          65.6216   91.5620   15.2120 N.3     1  UNL1       -0.2665
     25 C          66.0721   92.4383   16.3429 C.3     1  UNL1        0.0899
     26 C          67.4472   93.0373   16.3258 C.3     1  UNL1        0.0897
     27 N          68.3718   92.7598   15.1777 N.3     1  UNL1       -0.2691
     28 C          69.7469   93.3587   15.1605 C.3     1  UNL1        0.0897
     29 C          67.9213   91.8834   14.0468 C.3     1  UNL1        0.0897
     30 C          66.5462   91.2845   14.0639 C.3     1  UNL1        0.0899
@<TRIPOS>BOND
     1    20    21    1
     2    21    22    1
     3    21    14    1
     4    14    15   ar
     5    15    16   ar
     6    16    17   ar
     7    17    11    1
     8    11    12    2
     9    11    13    2
    10    11     1    1
    11     1     2   ar
    12     2     3   ar
    13     3    23    1
    14    23    24    1
    15    24    25    1
    16    25    26    1
    17    26    27    1
    18    27    28    1
    19    27    29    1
    20    29    30    1
    21     3     4   ar
    22     4     5   ar
    23     5     6   ar
    24     6     7    1
    25     6     8   ar
    26     8     9   ar
    27     9    10   ar
    28    17    18   ar
    29    18    19   ar
    30    19    14   ar
    31    10     1   ar
    32    30    24    1
    33    10     4   ar
@<TRIPOS>MOLECULE
*****
 30 33 0 0 0
SMALL
GASTEIGER

@<TRIPOS>ATOM
      1 N          62.3821   87.9287   11.5672 N.ar    1  UNL1       -0.2080
      2 C          63.5390   88.8537   11.3310 C.ar    1  UNL1        0.0970
      3 C          63.0021   90.2506   11.2289 C.ar    1  UNL1        0.0144
      4 C          61.5134   90.1889   11.4020 C.ar    1  UNL1        0.0186
      5 C          60.4573   91.2541   11.3963 C.ar    1  UNL1        0.0309
      6 C          59.0180   90.8841   11.5997 C.ar    1  UNL1        0.1402
      7 F          57.9618   91.9493   11.5939 F       1  UNL1       -0.2042
      8 C          58.6348   89.4491   11.8088 C.ar    1  UNL1        0.0312
      9 C          59.6909   88.3839   11.8146 C.ar    1  UNL1        0.0212
     10 C          61.1302   88.7539   11.6112 C.ar    1  UNL1        0.0824
     11 S          62.4628   86.4398   11.7309 S.O2    1  UNL1        0.0860
     12 O          61.6523   86.2586   10.4819 O.2     1  UNL1       -0.1476
     13 O          63.2734   86.6211   12.9799 O.2     1  UNL1       -0.1476
     14 C          62.7051   81.9732   12.2222 C.ar    1  UNL1       -0.0224
     15 C          62.3915   82.8419   13.4042 C.ar    1  UNL1       -0.0029
     16 C          62.3107   84.3307   13.2404 C.ar    1  UNL1        0.0201
     17 C          62.5436   84.9509   11.8946 C.ar    1  UNL1        0.1277
     18 C          62.8572   84.0823   10.7126 C.ar    1  UNL1        0.0201
     19 C          62.9379   82.5935   10.8764 C.ar    1  UNL1       -0.0029
     20 C          62.7686   79.8788   13.7581 C.3     1  UNL1        0.0047
     21 C          62.7859   80.4845   12.3859 C.3     1  UNL1        0.0224
     22 C          62.8839   79.6012   11.1775 C.3     1  UNL1        0.0047
     23 C          63.8118   91.4914   10.9947 C.3     1  UNL1        0.1008
     24 N          64.7354   91.9971   12.0631 N.3     1  UNL1       -0.2665
     25 C          64.7767   91.3199   13.4009 C.3     1  UNL1        0.0899
     26 C          65.7002   91.8254   14.4693 C.3     1  UNL1        0.0897
     27 N          66.5825   93.0082   14.1998 N.3     1  UNL1       -0.2691
     28 C          67.5061   93.5139   15.2682 C.3     1  UNL1        0.0897
     29 C          66.5412   93.6854   12.8620 C.3     1  UNL1        0.0897
     30 C          65.6177   93.1799   11.7937 C.3     1  UNL1        0.0899
@<TRIPOS>BOND
     1    20    21    1
     2    21    22    1
     3    21    14    1
     4    14    15   ar
     5    15    16   ar
     6    16    17   ar
     7    17    11    1
     8    11    12    2
     9    11    13    2
    10    11     1    1
    11     1     2   ar
    12     2     3   ar
    13     3    23    1
    14    23    24    1
    15    24    25    1
    16    25    26    1
    17    26    27    1
    18    27    28    1
    19    27    29    1
    20    29    30    1
    21     3     4   ar
    22     4     5   ar
    23     5     6   ar
    24     6     7    1
    25     6     8   ar
    26     8     9   ar
    27     9    10   ar
    28    17    18   ar
    29    18    19   ar
    30    19    14   ar
    31    10     1   ar
    32    30    24    1
    33    10     4   ar
@<TRIPOS>MOLECULE
*****
 30 33 0 0 0
SMALL
GASTEIGER

@<TRIPOS>ATOM
      1 N          59.9320   94.2452   -1.3472 N.ar    1  UNL1       -0.2080
      2 C          61.1882   94.3866   -2.1545 C.ar    1  UNL1        0.0970
      3 C          62.3346   93.9036   -1.3164 C.ar    1  UNL1        0.0144
      4 C          61.7869   93.4637    0.0089 C.ar    1  UNL1        0.0186
      5 C          62.4485   92.8982    1.2306 C.ar    1  UNL1        0.0309
      6 C          61.6251   92.5438    2.4332 C.ar    1  UNL1        0.1402
      7 F          62.2867   91.9783    3.6549 F       1  UNL1       -0.2042
      8 C          60.1402   92.7549    2.4142 C.ar    1  UNL1        0.0312
      9 C          59.4786   93.3204    1.1925 C.ar    1  UNL1        0.0212
     10 C          60.3020   93.6748   -0.0101 C.ar    1  UNL1        0.0824
     11 S          58.5486   94.6101   -1.7978 S.O2    1  UNL1        0.0860
     12 O          58.7611   96.0137   -1.3135 O.2     1  UNL1       -0.1476
     13 O          58.3361   93.2064   -2.2821 O.2     1  UNL1       -0.1476
     14 C          54.3984   95.7047   -3.1498 C.ar    1  UNL1       -0.0224
     15 C          55.5869   96.1220   -3.9641 C.ar    1  UNL1       -0.0029
     16 C          56.9703   95.7572   -3.5134 C.ar    1  UNL1        0.0201
     17 C          57.1651   94.9749   -2.2484 C.ar    1  UNL1        0.1277
     18 C          55.9766   94.5576   -1.4341 C.ar    1  UNL1        0.0201
     19 C          54.5932   94.9224   -1.8848 C.ar    1  UNL1       -0.0029
     20 C          52.7717   96.4712   -5.0250 C.3     1  UNL1        0.0047
     21 C          53.0150   96.0695   -3.6004 C.3     1  UNL1        0.0224
     22 C          51.8747   96.0326   -2.6265 C.3     1  UNL1        0.0047
     23 C          63.7758   93.8669   -1.7309 C.3     1  UNL1        0.1008
     24 N          64.1363   93.7855   -3.1847 N.3     1  UNL1       -0.2665
     25 C          64.5940   95.0139   -3.9138 C.3     1  UNL1        0.0899
     26 C          64.9545   94.9326   -5.3676 C.3     1  UNL1        0.0897
     27 N          64.8573   93.6228   -6.0922 N.3     1  UNL1       -0.2691
     28 C          65.2178   93.5414   -7.5459 C.3     1  UNL1        0.0897
     29 C          64.3996   92.3944   -5.3630 C.3     1  UNL1        0.0897
     30 C          64.0391   92.4758   -3.9093 C.3     1  UNL1        0.0899
@<TRIPOS>BOND
     1    20    21    1
     2    21    22    1
     3    21    14    1
     4    14    15   ar
     5    15    16   ar
     6    16    17   ar
     7    17    11    1
     8    11    12    2
     9    11    13    2
    10    11     1    1
    11     1     2   ar
    12     2     3   ar
    13     3    23    1
    14    23    24    1
    15    24    25    1
    16    25    26    1
    17    26    27    1
    18    27    28    1
    19    27    29    1
    20    29    30    1
    21     3     4   ar
    22     4     5   ar
    23     5     6   ar
    24     6     7    1
    25     6     8   ar
    26     8     9   ar
    27     9    10   ar
    28    17    18   ar
    29    18    19   ar
    30    19    14   ar
    31    10     1   ar
    32    30    24    1
    33    10     4   ar
@<TRIPOS>MOLECULE
*****
 30 33 0 0 0
SMALL
GASTEIGER

@<TRIPOS>ATOM
      1 N          62.8206   87.0654   12.2427 N.ar    1  UNL1       -0.2080
      2 C          63.8607   87.8441   12.9922 C.ar    1  UNL1        0.0970
      3 C          63.4395   89.2836   13.0087 C.ar    1  UNL1        0.0144
      4 C          62.1390   89.3946   12.2695 C.ar    1  UNL1        0.0186
      5 C          61.2537   90.5669   11.9662 C.ar    1  UNL1        0.0309
      6 C          59.9860   90.3682   11.1896 C.ar    1  UNL1        0.1402
      7 F          59.1006   91.5405   10.8864 F       1  UNL1       -0.2042
      8 C          59.6034   88.9973   10.7162 C.ar    1  UNL1        0.0312
      9 C          60.4887   87.8250   11.0194 C.ar    1  UNL1        0.0212
     10 C          61.7565   88.0236   11.7960 C.ar    1  UNL1        0.0824
     11 S          62.8409   85.5878   11.9851 S.O2    1  UNL1        0.0860
     12 O          62.9554   85.3325   13.4587 O.2     1  UNL1       -0.1476
     13 O          62.7263   85.8431   10.5114 O.2     1  UNL1       -0.1476
     14 C          62.9017   81.1550   11.2122 C.ar    1  UNL1       -0.0224
     15 C          62.2504   81.6913   12.4524 C.ar    1  UNL1       -0.0029
     16 C          62.2301   83.1688   12.7100 C.ar    1  UNL1        0.0201
     17 C          62.8612   84.1102   11.7274 C.ar    1  UNL1        0.1277
     18 C          63.5126   83.5740   10.4872 C.ar    1  UNL1        0.0201
     19 C          63.5329   82.0965   10.2296 C.ar    1  UNL1       -0.0029
     20 C          62.7205   78.7157   12.0878 C.3     1  UNL1        0.0047
     21 C          62.9221   79.6776   10.9545 C.3     1  UNL1        0.0224
     22 C          63.1440   79.1617    9.5636 C.3     1  UNL1        0.0047
     23 C          64.1874   90.4138   13.6516 C.3     1  UNL1        0.1008
     24 N          64.8179   91.4761   12.8006 N.3     1  UNL1       -0.2665
     25 C          64.4008   91.6356   11.3686 C.3     1  UNL1        0.0899
     26 C          65.0312   92.6978   10.5176 C.3     1  UNL1        0.0897
     27 N          66.0788   93.6006   11.0986 N.3     1  UNL1       -0.2691
     28 C          66.7092   94.6628   10.2477 C.3     1  UNL1        0.0897
     29 C          66.4959   93.4411   12.5306 C.3     1  UNL1        0.0897
     30 C          65.8655   92.3789   13.3816 C.3     1  UNL1        0.0899
@<TRIPOS>BOND
     1    20    21    1
     2    21    22    1
     3    21    14    1
     4    14    15   ar
     5    15    16   ar
     6    16    17   ar
     7    17    11    1
     8    11    12    2
     9    11    13    2
    10    11     1    1
    11     1     2   ar
    12     2     3   ar
    13     3    23    1
    14    23    24    1
    15    24    25    1
    16    25    26    1
    17    26    27    1
    18    27    28    1
    19    27    29    1
    20    29    30    1
    21     3     4   ar
    22     4     5   ar
    23     5     6   ar
    24     6     7    1
    25     6     8   ar
    26     8     9   ar
    27     9    10   ar
    28    17    18   ar
    29    18    19   ar
    30    19    14   ar
    31    10     1   ar
    32    30    24    1
    33    10     4   ar
@<TRIPOS>MOLECULE
*****
 30 33 0 0 0
SMALL
GASTEIGER

@<TRIPOS>ATOM
      1 N          63.5373   87.5498   13.2471 N.ar    1  UNL1       -0.2080
      2 C          64.3394   88.3122   14.2597 C.ar    1  UNL1        0.0970
      3 C          64.4624   89.7289   13.7821 C.ar    1  UNL1        0.0144
      4 C          63.7362   89.8420   12.4745 C.ar    1  UNL1        0.0186
      5 C          63.5218   90.9972   11.5422 C.ar    1  UNL1        0.0309
      6 C          62.7356   90.8058   10.2792 C.ar    1  UNL1        0.1402
      7 F          62.5211   91.9611    9.3468 F       1  UNL1       -0.2042
      8 C          62.1638   89.4590    9.9485 C.ar    1  UNL1        0.0312
      9 C          62.3783   88.3037   10.8808 C.ar    1  UNL1        0.0212
     10 C          63.1645   88.4952   12.1438 C.ar    1  UNL1        0.0824
     11 S          63.1720   86.0970   13.3243 S.O2    1  UNL1        0.0860
     12 O          62.2977   86.2526   12.1155 O.2     1  UNL1       -0.1476
     13 O          64.0464   85.9414   14.5331 O.2     1  UNL1       -0.1476
     14 C          62.0764   81.7385   13.5562 C.ar    1  UNL1       -0.0224
     15 C          62.0680   82.5810   14.7972 C.ar    1  UNL1       -0.0029
     16 C          62.4332   84.0339   14.7198 C.ar    1  UNL1        0.0201
     17 C          62.8068   84.6441   13.4015 C.ar    1  UNL1        0.1277
     18 C          62.8152   83.8016   12.1605 C.ar    1  UNL1        0.0201
     19 C          62.4500   82.3489   12.2378 C.ar    1  UNL1       -0.0029
     20 C          60.3815   79.8754   14.1933 C.3     1  UNL1        0.0047
     21 C          61.7112   80.2857   13.6334 C.3     1  UNL1        0.0224
     22 C          62.6757   79.2432   13.1507 C.3     1  UNL1        0.0047
     23 C          65.1846   90.8378   14.4883 C.3     1  UNL1        0.1008
     24 N          65.5720   92.0777   13.7381 N.3     1  UNL1       -0.2665
     25 C          65.3470   92.1595   12.2574 C.3     1  UNL1        0.0899
     26 C          65.7343   93.3993   11.5072 C.3     1  UNL1        0.0897
     27 N          66.3465   94.5575   12.2379 N.3     1  UNL1       -0.2691
     28 C          66.7338   95.7973   11.4878 C.3     1  UNL1        0.0897
     29 C          66.5715   94.4757   13.7187 C.3     1  UNL1        0.0897
     30 C          66.1842   93.2359   14.4688 C.3     1  UNL1        0.0899
@<TRIPOS>BOND
     1    20    21    1
     2    21    22    1
     3    21    14    1
     4    14    15   ar
     5    15    16   ar
     6    16    17   ar
     7    17    11    1
     8    11    12    2
     9    11    13    2
    10    11     1    1
    11     1     2   ar
    12     2     3   ar
    13     3    23    1
    14    23    24    1
    15    24    25    1
    16    25    26    1
    17    26    27    1
    18    27    28    1
    19    27    29    1
    20    29    30    1
    21     3     4   ar
    22     4     5   ar
    23     5     6   ar
    24     6     7    1
    25     6     8   ar
    26     8     9   ar
    27     9    10   ar
    28    17    18   ar
    29    18    19   ar
    30    19    14   ar
    31    10     1   ar
    32    30    24    1
    33    10     4   ar
