@<TRIPOS>MOLECULE
*****
 33 37 0 0 0
SMALL
GASTEIGER

@<TRIPOS>ATOM
      1 O          64.3398   88.4389   13.4650 O.2     1  UNL1       -0.2522
      2 C          64.1758   88.7830   14.9157 C.2     1  UNL1        0.3082
      3 N          63.7173   87.7366   15.8875 N.am    1  UNL1       -0.2681
      4 N          64.4704   90.1738   15.3945 N.am    1  UNL1       -0.2681
      5 H          63.6097   87.9625   16.8397 H       1  UNL1        0.1564
      6 H          64.3628   90.3997   16.3467 H       1  UNL1        0.1564
      7 C          63.4227   86.3459   15.4087 C.ar    1  UNL1        0.0516
      8 C          64.1522   85.7913   14.2212 C.ar    1  UNL1        0.0147
      9 C          63.8577   84.4006   13.7424 C.ar    1  UNL1        0.0013
     10 C          62.8336   83.5645   14.4511 C.ar    1  UNL1        0.0001
     11 C          62.1040   84.1192   15.6387 C.ar    1  UNL1        0.0013
     12 C          62.3987   85.5099   16.1175 C.ar    1  UNL1        0.0147
     13 C          62.5390   82.1739   13.9723 C.ar    1  UNL1        0.0000
     14 C          63.4441   81.5176   12.9722 C.ar    1  UNL1        0.0000
     15 C          63.1495   80.1268   12.4934 C.ar    1  UNL1        0.0000
     16 C          61.9499   79.3926   13.0147 C.ar    1  UNL1        0.0000
     17 C          61.0449   80.0489   14.0147 C.ar    1  UNL1        0.0000
     18 C          61.3394   81.4396   14.4936 C.ar    1  UNL1        0.0000
     19 C          64.9290   91.2202   14.4226 C.ar    1  UNL1        0.0516
     20 C          64.3246   91.2865   13.0513 C.ar    1  UNL1        0.0147
     21 C          64.7831   92.3329   12.0795 C.ar    1  UNL1        0.0010
     22 C          65.8461   93.3132   12.4788 C.ar    1  UNL1       -0.0014
     23 C          66.4505   93.2469   13.8501 C.ar    1  UNL1        0.0010
     24 C          65.9919   92.2004   14.8220 C.ar    1  UNL1        0.0147
     25 C          66.3046   94.3596   11.5069 C.2     1  UNL1        0.0158
     26 C          65.9502   95.7996   11.7326 C.2     1  UNL1        0.0487
     27 C          66.4087   96.8460   10.7607 C.2     1  UNL1        0.2355
     28 N          67.2217   96.4526    9.5630 N.2     1  UNL1       -0.0325
     29 C          67.5761   95.0127    9.3373 C.2     1  UNL1        0.3799
     30 N          68.3588   94.3294    8.2554 N.2     1  UNL1       -0.0106
     31 C          68.3839   92.8606    8.5587 C.2     1  UNL1        0.3351
     32 N          67.6169   92.6361    9.8280 N.2     1  UNL1       -0.2103
     33 C          67.1176   93.9662   10.3092 C.3     1  UNL1        0.2404
@<TRIPOS>BOND
     1     1     2    2
     2     2     3   am
     3     3     7    1
     4     7     8   ar
     5     8     9   ar
     6     9    10   ar
     7    10    13    1
     8    13    14   ar
     9    14    15   ar
    10    15    16   ar
    11    16    17   ar
    12    17    18   ar
    13    10    11   ar
    14    11    12   ar
    15     2     4   am
    16     4    19    1
    17    19    20   ar
    18    20    21   ar
    19    21    22   ar
    20    22    25    1
    21    25    26    2
    22    26    27    1
    23    27    28    2
    24    28    29    1
    25    29    30    2
    26    30    31    1
    27    31    32    2
    28    32    33    1
    29    22    23   ar
    30    23    24   ar
    31    12     7   ar
    32    24    19   ar
    33    18    13   ar
    34    33    25    1
    35    33    29    1
    36     3     5    1
    37     4     6    1
@<TRIPOS>MOLECULE
*****
 33 37 0 0 0
SMALL
GASTEIGER

@<TRIPOS>ATOM
      1 O          64.4259   88.5039   13.0690 O.2     1  UNL1       -0.2522
      2 C          64.2832   88.8699   14.5167 C.2     1  UNL1        0.3082
      3 N          64.5985   90.2636   14.9726 N.am    1  UNL1       -0.2681
      4 N          63.8251   87.8419   15.5085 N.am    1  UNL1       -0.2681
      5 H          64.5048   90.5037   15.9227 H       1  UNL1        0.1564
      6 H          63.7314   88.0820   16.4586 H       1  UNL1        0.1564
      7 C          65.0566   91.2916   13.9808 C.ar    1  UNL1        0.0516
      8 C          66.2042   92.1975   14.3157 C.ar    1  UNL1        0.0147
      9 C          66.6623   93.2255   13.3240 C.ar    1  UNL1        0.0013
     10 C          65.9728   93.3475   11.9974 C.ar    1  UNL1        0.0001
     11 C          64.8251   92.4414   11.6626 C.ar    1  UNL1        0.0013
     12 C          64.3670   91.4135   12.6543 C.ar    1  UNL1        0.0147
     13 C          66.4309   94.3753   11.0058 C.ar    1  UNL1        0.0000
     14 C          67.1893   93.9519    9.7828 C.ar    1  UNL1        0.0000
     15 C          67.6474   94.9798    8.7910 C.ar    1  UNL1        0.0000
     16 C          67.3470   96.4311    9.0222 C.ar    1  UNL1        0.0000
     17 C          66.5886   96.8546   10.2451 C.ar    1  UNL1        0.0000
     18 C          66.1305   95.8267   11.2368 C.ar    1  UNL1        0.0000
     19 C          63.5098   86.4482   15.0526 C.ar    1  UNL1        0.0516
     20 C          63.4834   86.1260   13.5878 C.ar    1  UNL1        0.0147
     21 C          63.1681   84.7323   13.1319 C.ar    1  UNL1        0.0010
     22 C          62.8791   83.6605   14.1408 C.ar    1  UNL1       -0.0014
     23 C          62.9054   83.9825   15.6056 C.ar    1  UNL1        0.0010
     24 C          63.2207   85.3764   16.0614 C.ar    1  UNL1        0.0147
     25 C          62.5637   82.2667   13.6849 C.2     1  UNL1        0.0158
     26 C          61.8261   81.3290   14.5941 C.2     1  UNL1        0.0487
     27 C          61.5108   79.9353   14.1382 C.2     1  UNL1        0.2355
     28 N          61.9331   79.4790   12.7730 N.2     1  UNL1       -0.0325
     29 C          62.6707   80.4167   11.8638 C.2     1  UNL1        0.3799
     30 N          63.2102   80.2504   10.4741 N.2     1  UNL1       -0.0106
     31 C          63.8589   81.5414   10.0712 C.2     1  UNL1        0.3351
     32 N          63.7204   82.5056   11.2118 N.2     1  UNL1       -0.2103
     33 C          62.9860   81.8105   12.3198 C.3     1  UNL1        0.2404
@<TRIPOS>BOND
     1     1     2    2
     2     2     3   am
     3     3     7    1
     4     7     8   ar
     5     8     9   ar
     6     9    10   ar
     7    10    13    1
     8    13    14   ar
     9    14    15   ar
    10    15    16   ar
    11    16    17   ar
    12    17    18   ar
    13    10    11   ar
    14    11    12   ar
    15     2     4   am
    16     4    19    1
    17    19    20   ar
    18    20    21   ar
    19    21    22   ar
    20    22    25    1
    21    25    26    2
    22    26    27    1
    23    27    28    2
    24    28    29    1
    25    29    30    2
    26    30    31    1
    27    31    32    2
    28    32    33    1
    29    22    23   ar
    30    23    24   ar
    31    12     7   ar
    32    24    19   ar
    33    18    13   ar
    34    33    25    1
    35    33    29    1
    36     3     5    1
    37     4     6    1
@<TRIPOS>MOLECULE
*****
 33 37 0 0 0
SMALL
GASTEIGER

@<TRIPOS>ATOM
      1 O          61.1887   90.1481    5.1657 O.2     1  UNL1       -0.2522
      2 C          59.8270   90.6330    5.5666 C.2     1  UNL1        0.3082
      3 N          59.1605   90.0719    6.7875 N.am    1  UNL1       -0.2681
      4 N          59.1319   91.6790    4.7464 N.am    1  UNL1       -0.2681
      5 H          58.2668   90.3902    7.0506 H       1  UNL1        0.1564
      6 H          58.2381   91.9973    5.0095 H       1  UNL1        0.1564
      7 C          59.8556   89.0258    7.6077 C.ar    1  UNL1        0.0516
      8 C          60.6704   89.4277    8.8013 C.ar    1  UNL1        0.0147
      9 C          61.3655   88.3818    9.6215 C.ar    1  UNL1        0.0013
     10 C          61.2458   86.9339    9.2482 C.ar    1  UNL1        0.0001
     11 C          60.4310   86.5320    8.0546 C.ar    1  UNL1        0.0013
     12 C          59.7359   87.5781    7.2343 C.ar    1  UNL1        0.0147
     13 C          61.9409   85.8880   10.0683 C.ar    1  UNL1        0.0000
     14 C          61.7209   85.8289   11.5510 C.ar    1  UNL1        0.0000
     15 C          62.4161   84.7828   12.3712 C.ar    1  UNL1        0.0000
     16 C          63.3310   83.7960   11.7088 C.ar    1  UNL1        0.0000
     17 C          63.5510   83.8550   10.2262 C.ar    1  UNL1        0.0000
     18 C          62.8559   84.9010    9.4059 C.ar    1  UNL1        0.0000
     19 C          59.7984   92.2401    3.5254 C.ar    1  UNL1        0.0516
     20 C          58.9680   92.7479    2.3840 C.ar    1  UNL1        0.0147
     21 C          59.6345   93.3090    1.1631 C.ar    1  UNL1        0.0010
     22 C          61.1315   93.3624    1.0834 C.ar    1  UNL1       -0.0014
     23 C          61.9619   92.8547    2.2248 C.ar    1  UNL1        0.0010
     24 C          61.2953   92.2936    3.4458 C.ar    1  UNL1        0.0147
     25 C          61.7981   93.9235   -0.1376 C.2     1  UNL1        0.0158
     26 C          61.2789   93.5770   -1.5016 C.2     1  UNL1        0.0487
     27 C          61.9454   94.1381   -2.7225 C.2     1  UNL1        0.2355
     28 N          63.1311   95.0458   -2.5796 N.2     1  UNL1       -0.0325
     29 C          63.6503   95.3923   -1.2157 C.2     1  UNL1        0.3799
     30 N          64.7923   96.2543   -0.7656 N.2     1  UNL1       -0.0106
     31 C          64.8316   96.2259    0.7336 C.2     1  UNL1        0.3351
     32 N          63.7139   95.3464    1.2101 N.2     1  UNL1       -0.2103
     33 C          62.9837   94.8311    0.0054 C.3     1  UNL1        0.2404
@<TRIPOS>BOND
     1     1     2    2
     2     2     3   am
     3     3     7    1
     4     7     8   ar
     5     8     9   ar
     6     9    10   ar
     7    10    13    1
     8    13    14   ar
     9    14    15   ar
    10    15    16   ar
    11    16    17   ar
    12    17    18   ar
    13    10    11   ar
    14    11    12   ar
    15     2     4   am
    16     4    19    1
    17    19    20   ar
    18    20    21   ar
    19    21    22   ar
    20    22    25    1
    21    25    26    2
    22    26    27    1
    23    27    28    2
    24    28    29    1
    25    29    30    2
    26    30    31    1
    27    31    32    2
    28    32    33    1
    29    22    23   ar
    30    23    24   ar
    31    12     7   ar
    32    24    19   ar
    33    18    13   ar
    34    33    25    1
    35    33    29    1
    36     3     5    1
    37     4     6    1
@<TRIPOS>MOLECULE
*****
 33 37 0 0 0
SMALL
GASTEIGER

@<TRIPOS>ATOM
      1 O          61.2132   90.1217    5.2819 O.2     1  UNL1       -0.2522
      2 C          59.8522   90.5907    5.7036 C.2     1  UNL1        0.3082
      3 N          59.2019   90.0063    6.9223 N.am    1  UNL1       -0.2681
      4 N          59.1417   91.6441    4.9064 N.am    1  UNL1       -0.2681
      5 H          58.3086   90.3142    7.1991 H       1  UNL1        0.1564
      6 H          58.2485   91.9520    5.1831 H       1  UNL1        0.1564
      7 C          59.9124   88.9529    7.7195 C.ar    1  UNL1        0.0516
      8 C          59.7418   87.5045    7.3687 C.ar    1  UNL1        0.0147
      9 C          60.4523   86.4510    8.1659 C.ar    1  UNL1        0.0013
     10 C          61.3333   86.8459    9.3138 C.ar    1  UNL1        0.0001
     11 C          61.5039   88.2944    9.6646 C.ar    1  UNL1        0.0013
     12 C          60.7934   89.3479    8.8674 C.ar    1  UNL1        0.0147
     13 C          62.0438   85.7926   10.1110 C.ar    1  UNL1        0.0000
     14 C          62.9584   84.8219    9.4243 C.ar    1  UNL1        0.0000
     15 C          63.6689   83.7684   10.2215 C.ar    1  UNL1        0.0000
     16 C          63.4649   83.6857   11.7052 C.ar    1  UNL1        0.0000
     17 C          62.5504   84.6563   12.3918 C.ar    1  UNL1        0.0000
     18 C          61.8398   85.7098   11.5947 C.ar    1  UNL1        0.0000
     19 C          59.7921   92.2285    3.6877 C.ar    1  UNL1        0.0516
     20 C          61.2842   92.1841    3.5395 C.ar    1  UNL1        0.0147
     21 C          61.9345   92.7685    2.3208 C.ar    1  UNL1        0.0010
     22 C          61.0929   93.3973    1.2501 C.ar    1  UNL1       -0.0014
     23 C          59.6009   93.4417    1.3981 C.ar    1  UNL1        0.0010
     24 C          58.9505   92.8573    2.6170 C.ar    1  UNL1        0.0147
     25 C          61.7434   93.9817    0.0313 C.2     1  UNL1        0.0158
     26 C          63.0677   94.6763    0.1481 C.2     1  UNL1        0.0487
     27 C          63.7181   95.2607   -1.0706 C.2     1  UNL1        0.2355
     28 N          63.0443   95.1504   -2.4063 N.2     1  UNL1       -0.0325
     29 C          61.7200   94.4558   -2.5231 C.2     1  UNL1        0.3799
     30 N          60.8238   94.1944   -3.6972 N.2     1  UNL1       -0.0106
     31 C          59.6195   93.4485   -3.2040 C.2     1  UNL1        0.3351
     32 N          59.7713   93.2489   -1.7252 N.2     1  UNL1       -0.2103
     33 C          61.0695   93.8714   -1.3043 C.3     1  UNL1        0.2404
@<TRIPOS>BOND
     1     1     2    2
     2     2     3   am
     3     3     7    1
     4     7     8   ar
     5     8     9   ar
     6     9    10   ar
     7    10    13    1
     8    13    14   ar
     9    14    15   ar
    10    15    16   ar
    11    16    17   ar
    12    17    18   ar
    13    10    11   ar
    14    11    12   ar
    15     2     4   am
    16     4    19    1
    17    19    20   ar
    18    20    21   ar
    19    21    22   ar
    20    22    25    1
    21    25    26    2
    22    26    27    1
    23    27    28    2
    24    28    29    1
    25    29    30    2
    26    30    31    1
    27    31    32    2
    28    32    33    1
    29    22    23   ar
    30    23    24   ar
    31    12     7   ar
    32    24    19   ar
    33    18    13   ar
    34    33    25    1
    35    33    29    1
    36     3     5    1
    37     4     6    1
@<TRIPOS>MOLECULE
*****
 33 37 0 0 0
SMALL
GASTEIGER

@<TRIPOS>ATOM
      1 O          61.0315   89.2005    7.2398 O.2     1  UNL1       -0.2522
      2 C          59.5484   88.9915    7.3205 C.2     1  UNL1        0.3082
      3 N          58.6352   89.7280    6.3859 N.am    1  UNL1       -0.2681
      4 N          58.9784   88.0459    8.3359 N.am    1  UNL1       -0.2681
      5 H          57.6618   89.5908    6.4389 H       1  UNL1        0.1564
      6 H          58.0050   87.9086    8.3889 H       1  UNL1        0.1564
      7 C          59.2052   90.6736    5.3704 C.ar    1  UNL1        0.0516
      8 C          60.6733   90.6492    5.0639 C.ar    1  UNL1        0.0147
      9 C          61.2433   91.5947    4.0485 C.ar    1  UNL1        0.0013
     10 C          60.3451   92.5648    3.3397 C.ar    1  UNL1        0.0001
     11 C          58.8769   92.5892    3.6463 C.ar    1  UNL1        0.0013
     12 C          58.3070   91.6436    4.6617 C.ar    1  UNL1        0.0147
     13 C          60.9150   93.5103    2.3243 C.ar    1  UNL1        0.0000
     14 C          62.1407   93.1282    1.5485 C.ar    1  UNL1        0.0000
     15 C          62.7106   94.0738    0.5331 C.ar    1  UNL1        0.0000
     16 C          62.0549   95.4014    0.2935 C.ar    1  UNL1        0.0000
     17 C          60.8293   95.7835    1.0692 C.ar    1  UNL1        0.0000
     18 C          60.2593   94.8380    2.0847 C.ar    1  UNL1        0.0000
     19 C          59.8916   87.3094    9.2705 C.ar    1  UNL1        0.0516
     20 C          60.6203   86.0862    8.7983 C.ar    1  UNL1        0.0147
     21 C          61.5335   85.3497    9.7329 C.ar    1  UNL1        0.0010
     22 C          61.7180   85.8363   11.1398 C.ar    1  UNL1       -0.0014
     23 C          60.9893   87.0594   11.6121 C.ar    1  UNL1        0.0010
     24 C          60.0761   87.7959   10.6773 C.ar    1  UNL1        0.0147
     25 C          62.6312   85.0997   12.0745 C.2     1  UNL1        0.0158
     26 C          62.7629   83.6088   11.9745 C.2     1  UNL1        0.0487
     27 C          63.6761   82.8723   12.9091 C.2     1  UNL1        0.2355
     28 N          64.4577   83.6265   13.9437 N.2     1  UNL1       -0.0325
     29 C          64.3260   85.1174   14.0436 C.2     1  UNL1        0.3799
     30 N          64.9650   86.1225   14.9554 N.2     1  UNL1       -0.0106
     31 C          64.4467   87.4803   14.5843 C.2     1  UNL1        0.3351
     32 N          63.4874   87.3144   13.4431 N.2     1  UNL1       -0.2103
     33 C          63.4127   85.8540   13.1090 C.3     1  UNL1        0.2404
@<TRIPOS>BOND
     1     1     2    2
     2     2     3   am
     3     3     7    1
     4     7     8   ar
     5     8     9   ar
     6     9    10   ar
     7    10    13    1
     8    13    14   ar
     9    14    15   ar
    10    15    16   ar
    11    16    17   ar
    12    17    18   ar
    13    10    11   ar
    14    11    12   ar
    15     2     4   am
    16     4    19    1
    17    19    20   ar
    18    20    21   ar
    19    21    22   ar
    20    22    25    1
    21    25    26    2
    22    26    27    1
    23    27    28    2
    24    28    29    1
    25    29    30    2
    26    30    31    1
    27    31    32    2
    28    32    33    1
    29    22    23   ar
    30    23    24   ar
    31    12     7   ar
    32    24    19   ar
    33    18    13   ar
    34    33    25    1
    35    33    29    1
    36     3     5    1
    37     4     6    1
@<TRIPOS>MOLECULE
*****
 33 37 0 0 0
SMALL
GASTEIGER

@<TRIPOS>ATOM
      1 O          61.2641   90.6134    5.1010 O.2     1  UNL1       -0.2522
      2 C          59.7990   90.9152    5.2119 C.2     1  UNL1        0.3082
      3 N          59.1264   91.7600    4.1710 N.am    1  UNL1       -0.2681
      4 N          59.0066   90.3720    6.3640 N.am    1  UNL1       -0.2681
      5 H          58.1647   91.9580    4.2439 H       1  UNL1        0.1564
      6 H          58.0450   90.5701    6.4369 H       1  UNL1        0.1564
      7 C          59.9188   92.3032    3.0190 C.ar    1  UNL1        0.0516
      8 C          59.2154   92.7730    1.7802 C.ar    1  UNL1        0.0147
      9 C          60.0077   93.3161    0.6282 C.ar    1  UNL1        0.0013
     10 C          61.5034   93.3895    0.7149 C.ar    1  UNL1        0.0001
     11 C          62.2068   92.9196    1.9537 C.ar    1  UNL1        0.0013
     12 C          61.4144   92.3764    3.1058 C.ar    1  UNL1        0.0147
     13 C          62.2958   93.9326   -0.4371 C.ar    1  UNL1        0.0000
     14 C          63.4985   94.7919   -0.1812 C.ar    1  UNL1        0.0000
     15 C          64.2909   95.3350   -1.3333 C.ar    1  UNL1        0.0000
     16 C          63.8807   95.0189   -2.7410 C.ar    1  UNL1        0.0000
     17 C          62.6781   94.1596   -2.9968 C.ar    1  UNL1        0.0000
     18 C          61.8857   93.6165   -1.8449 C.ar    1  UNL1        0.0000
     19 C          59.6793   89.5272    7.4049 C.ar    1  UNL1        0.0516
     20 C          60.4662   90.1768    8.5045 C.ar    1  UNL1        0.0147
     21 C          61.1388   89.3320    9.5454 C.ar    1  UNL1        0.0010
     22 C          61.0247   87.8374    9.4869 C.ar    1  UNL1       -0.0014
     23 C          60.2378   87.1878    8.3875 C.ar    1  UNL1        0.0010
     24 C          59.5651   88.0327    7.3465 C.ar    1  UNL1        0.0147
     25 C          61.6974   86.9926   10.5279 C.2     1  UNL1        0.0158
     26 C          61.5937   85.4976   10.4623 C.2     1  UNL1        0.0487
     27 C          62.2664   84.6528   11.5033 C.2     1  UNL1        0.2355
     28 N          63.0428   85.3029   12.6100 N.2     1  UNL1       -0.0325
     29 C          63.1465   86.7978   12.6755 C.2     1  UNL1        0.3799
     30 N          63.8376   87.7146   13.6409 N.2     1  UNL1       -0.0106
     31 C          63.5921   89.1260   13.1965 C.2     1  UNL1        0.3351
     32 N          62.7492   89.0816   11.9565 N.2     1  UNL1       -0.2103
     33 C          62.4738   87.6427   11.6345 C.3     1  UNL1        0.2404
@<TRIPOS>BOND
     1     1     2    2
     2     2     3   am
     3     3     7    1
     4     7     8   ar
     5     8     9   ar
     6     9    10   ar
     7    10    13    1
     8    13    14   ar
     9    14    15   ar
    10    15    16   ar
    11    16    17   ar
    12    17    18   ar
    13    10    11   ar
    14    11    12   ar
    15     2     4   am
    16     4    19    1
    17    19    20   ar
    18    20    21   ar
    19    21    22   ar
    20    22    25    1
    21    25    26    2
    22    26    27    1
    23    27    28    2
    24    28    29    1
    25    29    30    2
    26    30    31    1
    27    31    32    2
    28    32    33    1
    29    22    23   ar
    30    23    24   ar
    31    12     7   ar
    32    24    19   ar
    33    18    13   ar
    34    33    25    1
    35    33    29    1
    36     3     5    1
    37     4     6    1
@<TRIPOS>MOLECULE
*****
 33 37 0 0 0
SMALL
GASTEIGER

@<TRIPOS>ATOM
      1 O          61.0216   89.2085    7.5379 O.2     1  UNL1       -0.2522
      2 C          59.5790   88.7978    7.5317 C.2     1  UNL1        0.3082
      3 N          58.6297   89.4079    6.5436 N.am    1  UNL1       -0.2681
      4 N          59.0856   87.7768    8.5138 N.am    1  UNL1       -0.2681
      5 H          57.6828   89.1383    6.5396 H       1  UNL1        0.1564
      6 H          58.1388   87.5072    8.5097 H       1  UNL1        0.1564
      7 C          59.1230   90.4289    5.5615 C.ar    1  UNL1        0.0516
      8 C          58.1544   91.3676    4.9054 C.ar    1  UNL1        0.0147
      9 C          58.6477   92.3885    3.9234 C.ar    1  UNL1        0.0013
     10 C          60.1095   92.4708    3.5975 C.ar    1  UNL1        0.0001
     11 C          61.0782   91.5320    4.2537 C.ar    1  UNL1        0.0013
     12 C          60.5849   90.5110    5.2358 C.ar    1  UNL1        0.0147
     13 C          60.6028   93.4916    2.6155 C.ar    1  UNL1        0.0000
     14 C          61.6163   93.1066    1.5788 C.ar    1  UNL1        0.0000
     15 C          62.1096   94.1275    0.5967 C.ar    1  UNL1        0.0000
     16 C          61.5896   95.5334    0.6515 C.ar    1  UNL1        0.0000
     17 C          60.5762   95.9184    1.6882 C.ar    1  UNL1        0.0000
     18 C          60.0828   94.8976    2.6702 C.ar    1  UNL1        0.0000
     19 C          60.0349   87.1666    9.5019 C.ar    1  UNL1        0.0516
     20 C          60.1181   87.7115   10.8970 C.ar    1  UNL1        0.0147
     21 C          61.0673   87.1014   11.8851 C.ar    1  UNL1        0.0010
     22 C          61.9335   85.9462   11.4782 C.ar    1  UNL1       -0.0014
     23 C          61.8504   85.4013   10.0832 C.ar    1  UNL1        0.0010
     24 C          60.9010   86.0115    9.0950 C.ar    1  UNL1        0.0147
     25 C          62.8828   85.3360   12.4664 C.2     1  UNL1        0.0158
     26 C          63.6317   86.2121   13.4264 C.2     1  UNL1        0.0487
     27 C          64.5810   85.6020   14.4146 C.2     1  UNL1        0.2355
     28 N          64.7814   84.1157   14.4428 N.2     1  UNL1       -0.0325
     29 C          64.0325   83.2396   13.4829 C.2     1  UNL1        0.3799
     30 N          64.0247   81.7538   13.2767 N.2     1  UNL1       -0.0106
     31 C          63.0705   81.4458   12.1610 C.2     1  UNL1        0.3351
     32 N          62.4886   82.7411   11.6777 N.2     1  UNL1       -0.2103
     33 C          63.0832   83.8497   12.4947 C.3     1  UNL1        0.2404
@<TRIPOS>BOND
     1     1     2    2
     2     2     3   am
     3     3     7    1
     4     7     8   ar
     5     8     9   ar
     6     9    10   ar
     7    10    13    1
     8    13    14   ar
     9    14    15   ar
    10    15    16   ar
    11    16    17   ar
    12    17    18   ar
    13    10    11   ar
    14    11    12   ar
    15     2     4   am
    16     4    19    1
    17    19    20   ar
    18    20    21   ar
    19    21    22   ar
    20    22    25    1
    21    25    26    2
    22    26    27    1
    23    27    28    2
    24    28    29    1
    25    29    30    2
    26    30    31    1
    27    31    32    2
    28    32    33    1
    29    22    23   ar
    30    23    24   ar
    31    12     7   ar
    32    24    19   ar
    33    18    13   ar
    34    33    25    1
    35    33    29    1
    36     3     5    1
    37     4     6    1
@<TRIPOS>MOLECULE
*****
 33 37 0 0 0
SMALL
GASTEIGER

@<TRIPOS>ATOM
      1 O          64.3978   87.9397   13.1246 O.2     1  UNL1       -0.2522
      2 C          64.2203   88.4618   14.5196 C.2     1  UNL1        0.3082
      3 N          63.6759   87.5657   15.5921 N.am    1  UNL1       -0.2681
      4 N          64.5871   89.8801   14.8419 N.am    1  UNL1       -0.2681
      5 H          63.5594   87.9083   16.5077 H       1  UNL1        0.1564
      6 H          64.4706   90.2228   15.7574 H       1  UNL1        0.1564
      7 C          63.3091   86.1473   15.2699 C.ar    1  UNL1        0.0516
      8 C          63.8685   85.4880   14.0442 C.ar    1  UNL1        0.0147
      9 C          63.5017   84.0697   13.7219 C.ar    1  UNL1        0.0013
     10 C          62.5755   83.3107   14.6252 C.ar    1  UNL1        0.0001
     11 C          62.0160   83.9701   15.8510 C.ar    1  UNL1        0.0013
     12 C          62.3828   85.3885   16.1733 C.ar    1  UNL1        0.0147
     13 C          62.2086   81.8925   14.3030 C.ar    1  UNL1        0.0000
     14 C          63.2647   80.9299   13.8464 C.ar    1  UNL1        0.0000
     15 C          62.8978   79.5115   13.5241 C.ar    1  UNL1        0.0000
     16 C          61.4751   79.0559   13.6584 C.ar    1  UNL1        0.0000
     17 C          60.4191   80.0184   14.1150 C.ar    1  UNL1        0.0000
     18 C          60.7859   81.4367   14.4373 C.ar    1  UNL1        0.0000
     19 C          65.1314   90.7763   13.7693 C.ar    1  UNL1        0.0516
     20 C          66.4853   91.4018   13.9301 C.ar    1  UNL1        0.0147
     21 C          67.0297   92.2979   12.8575 C.ar    1  UNL1        0.0010
     22 C          66.2201   92.5686   11.6240 C.ar    1  UNL1       -0.0014
     23 C          64.8663   91.9432   11.4631 C.ar    1  UNL1        0.0010
     24 C          64.3220   91.0470   12.5358 C.ar    1  UNL1        0.0147
     25 C          66.7645   93.4648   10.5513 C.2     1  UNL1        0.0158
     26 C          68.0010   93.0695    9.7998 C.2     1  UNL1        0.0487
     27 C          68.5454   93.9657    8.7272 C.2     1  UNL1        0.2355
     28 N          67.8533   95.2572    8.4061 N.2     1  UNL1       -0.0325
     29 C          66.6168   95.6525    9.1576 C.2     1  UNL1        0.3799
     30 N          65.7261   96.8556    9.0625 N.2     1  UNL1       -0.0106
     31 C          64.6312   96.7030   10.0763 C.2     1  UNL1        0.3351
     32 N          64.8452   95.4055   10.7981 N.2     1  UNL1       -0.2103
     33 C          66.0724   94.7563   10.2303 C.3     1  UNL1        0.2404
@<TRIPOS>BOND
     1     1     2    2
     2     2     3   am
     3     3     7    1
     4     7     8   ar
     5     8     9   ar
     6     9    10   ar
     7    10    13    1
     8    13    14   ar
     9    14    15   ar
    10    15    16   ar
    11    16    17   ar
    12    17    18   ar
    13    10    11   ar
    14    11    12   ar
    15     2     4   am
    16     4    19    1
    17    19    20   ar
    18    20    21   ar
    19    21    22   ar
    20    22    25    1
    21    25    26    2
    22    26    27    1
    23    27    28    2
    24    28    29    1
    25    29    30    2
    26    30    31    1
    27    31    32    2
    28    32    33    1
    29    22    23   ar
    30    23    24   ar
    31    12     7   ar
    32    24    19   ar
    33    18    13   ar
    34    33    25    1
    35    33    29    1
    36     3     5    1
    37     4     6    1
