@<TRIPOS>MOLECULE
*****
 41 44 0 0 0
SMALL
GASTEIGER

@<TRIPOS>ATOM
      1 N          61.9710   87.9733   11.1083 N.ar    1  UNL1       -0.2252
      2 C          63.2065   88.7162   11.5224 C.ar    1  UNL1        0.1148
      3 C          62.7962   89.8101   12.4632 C.ar    1  UNL1        0.1134
      4 N          61.3071   89.7431   12.6306 N.ar    1  UNL1       -0.1318
      5 N          60.7971   88.6080   11.7932 N.ar    1  UNL1       -0.0638
      6 C          63.7140   90.7974   13.1211 C.3     1  UNL1        0.0813
      7 C          63.6719   91.6557   11.8917 C.3     1  UNL1        0.0220
      8 C          63.7560   89.9392   14.3506 C.3     1  UNL1        0.0187
      9 C          64.3790   88.5759   14.2925 C.3     1  UNL1        0.0017
     10 C          63.1751   90.4441   15.6380 C.3     1  UNL1        0.0017
     11 N          64.6317   91.7848   13.7790 N.3     1  UNL1       -0.2901
     12 H          64.6227   91.5754   14.7772 H       1  UNL1        0.1239
     13 C          66.0715   91.8614   13.3656 C.3     1  UNL1        0.1155
     14 C          66.4759   92.7340   12.2145 C.ar    1  UNL1        0.0781
     15 C          67.1936   92.1401   11.0389 C.ar    1  UNL1        0.0369
     16 C          67.5979   93.0127    9.8878 C.ar    1  UNL1        0.1033
     17 N          67.2845   94.4794    9.9124 N.ar    1  UNL1       -0.2107
     18 N          67.5562   95.5804    8.9305 N.ar    1  UNL1       -0.1621
     19 C          67.0064   96.8548    9.4993 C.ar    1  UNL1        0.1237
     20 C          66.3949   96.5415   10.8327 C.ar    1  UNL1        0.0612
     21 C          66.5668   95.0734   11.0880 C.ar    1  UNL1        0.1651
     22 N          66.1625   94.2007   12.2390 N.ar    1  UNL1       -0.2294
     23 C          61.9185   86.8014   10.1735 C.3     1  UNL1        0.1676
     24 C          62.2764   85.4311   10.6676 C.2     1  UNL1        0.2165
     25 O          61.8096   84.9752   12.0182 O.2     1  UNL1       -0.2901
     26 C          63.1013   84.5166    9.8111 C.3     1  UNL1        0.2712
     27 O          64.1727   83.6707   10.4327 O.3     1  UNL1       -0.4627
     28 C          63.8542   82.8085   11.6181 C.ar    1  UNL1        0.1981
     29 C          64.1525   83.2987   13.0039 C.ar    1  UNL1        0.2034
     30 F          64.7693   84.6512   13.2045 F       1  UNL1       -0.1985
     31 C          63.8339   82.4365   14.1893 C.ar    1  UNL1        0.1728
     32 F          64.1322   82.9267   15.5751 F       1  UNL1       -0.2016
     33 C          63.2170   81.0839   13.9888 C.ar    1  UNL1        0.0641
     34 C          62.9187   80.5937   12.6029 C.ar    1  UNL1        0.1728
     35 F          62.3019   79.2412   12.4023 F       1  UNL1       -0.2016
     36 C          63.2373   81.4559   11.4176 C.ar    1  UNL1        0.2034
     37 F          62.9390   80.9657   10.0317 F       1  UNL1       -0.1985
     38 C          61.5080   86.9998    8.7444 C.3     1  UNL1        0.0321
     39 C          60.2557   86.3557    8.2275 C.3     1  UNL1        0.0024
     40 C          59.2801   88.6288    7.4330 C.3     1  UNL1        0.0000
     41 C          59.0761   87.2033    7.8531 C.3     1  UNL1        0.0001
@<TRIPOS>BOND
     1    40    41    1
     2    41    39    1
     3    39    38    1
     4    38    23    1
     5    23    24    1
     6    24    25    2
     7    24    26    1
     8    26    27    1
     9    27    28    1
    10    28    29   ar
    11    29    30    1
    12    29    31   ar
    13    31    32    1
    14    31    33   ar
    15    33    34   ar
    16    34    35    1
    17    34    36   ar
    18    36    37    1
    19    23     1    1
    20     1     2   ar
    21     2     3   ar
    22     3     6    1
    23     6     7    1
    24     6    11    1
    25    11    13    1
    26    13    14    1
    27    14    15   ar
    28    15    16   ar
    29    16    17   ar
    30    17    18   ar
    31    18    19   ar
    32    19    20   ar
    33    20    21   ar
    34    21    22   ar
    35     6     8    1
    36     8     9    1
    37     8    10    1
    38     3     4   ar
    39     4     5   ar
    40    36    28   ar
    41     5     1   ar
    42    22    14   ar
    43    21    17   ar
    44    11    12    1
@<TRIPOS>MOLECULE
*****
 41 44 0 0 0
SMALL
GASTEIGER

@<TRIPOS>ATOM
      1 N          63.7364   83.6682   13.9332 N.ar    1  UNL1       -0.2252
      2 C          63.5786   85.1598   13.9406 C.ar    1  UNL1        0.1148
      3 C          63.6996   85.6317   15.3593 C.ar    1  UNL1        0.1134
      4 N          63.9323   84.4317   16.2286 N.ar    1  UNL1       -0.1318
      5 N          63.9551   83.2182   15.3473 N.ar    1  UNL1       -0.0638
      6 C          63.6047   87.0539   15.8265 C.3     1  UNL1        0.0813
      7 C          64.5728   87.4693   14.7588 C.3     1  UNL1        0.0220
      8 C          62.6366   86.6384   16.8943 C.3     1  UNL1        0.0187
      9 C          61.3635   85.9384   16.5212 C.3     1  UNL1        0.0017
     10 C          62.9415   86.9230   18.3351 C.3     1  UNL1        0.0017
     11 N          63.5097   88.4761   16.2938 N.3     1  UNL1       -0.2901
     12 H          64.4524   88.7631   16.5571 H       1  UNL1        0.1239
     13 C          62.9761   89.5338   15.3737 C.3     1  UNL1        0.1155
     14 C          63.9084   90.5410   14.7684 C.ar    1  UNL1        0.0781
     15 C          64.8543   91.3085   15.6436 C.ar    1  UNL1        0.0369
     16 C          65.7866   92.3157   15.0382 C.ar    1  UNL1        0.1033
     17 N          65.7728   92.5555   13.5576 N.ar    1  UNL1       -0.2107
     18 N          66.5694   93.4773   12.6826 N.ar    1  UNL1       -0.1621
     19 C          66.1158   93.2796   11.2666 C.ar    1  UNL1        0.1237
     20 C          65.0388   92.2355   11.2664 C.ar    1  UNL1        0.0612
     21 C          64.8268   91.7880   12.6823 C.ar    1  UNL1        0.1651
     22 N          63.8946   90.7808   13.2877 N.ar    1  UNL1       -0.2294
     23 C          63.6847   82.7821   12.7240 C.3     1  UNL1        0.1676
     24 C          63.6536   83.3868   11.3516 C.2     1  UNL1        0.2165
     25 O          64.6912   83.0024   10.3390 O.2     1  UNL1       -0.2901
     26 C          62.5849   84.3760   10.9919 C.3     1  UNL1        0.2712
     27 O          62.7930   85.3214    9.8461 O.3     1  UNL1       -0.4627
     28 C          61.9155   86.5294    9.7017 C.ar    1  UNL1        0.1981
     29 C          60.9228   86.6055    8.5798 C.ar    1  UNL1        0.2034
     30 F          60.8076   85.4738    7.6021 F       1  UNL1       -0.1985
     31 C          60.0454   87.8135    8.4355 C.ar    1  UNL1        0.1728
     32 F          59.0527   87.8897    7.3135 F       1  UNL1       -0.2016
     33 C          60.1605   88.9454    9.4131 C.ar    1  UNL1        0.0641
     34 C          61.1531   88.8692   10.5351 C.ar    1  UNL1        0.1728
     35 F          61.2683   90.0010   11.5127 F       1  UNL1       -0.2016
     36 C          62.0306   87.6612   10.6794 C.ar    1  UNL1        0.2034
     37 F          63.0233   87.5850   11.8013 F       1  UNL1       -0.1985
     38 C          63.6642   81.2911   12.8871 C.3     1  UNL1        0.0321
     39 C          62.3588   80.5742   13.0665 C.3     1  UNL1        0.0024
     40 C          60.0016   80.4338   14.1500 C.3     1  UNL1        0.0000
     41 C          61.3370   81.1061   14.0272 C.3     1  UNL1        0.0001
@<TRIPOS>BOND
     1    40    41    1
     2    41    39    1
     3    39    38    1
     4    38    23    1
     5    23    24    1
     6    24    25    2
     7    24    26    1
     8    26    27    1
     9    27    28    1
    10    28    29   ar
    11    29    30    1
    12    29    31   ar
    13    31    32    1
    14    31    33   ar
    15    33    34   ar
    16    34    35    1
    17    34    36   ar
    18    36    37    1
    19    23     1    1
    20     1     2   ar
    21     2     3   ar
    22     3     6    1
    23     6     7    1
    24     6    11    1
    25    11    13    1
    26    13    14    1
    27    14    15   ar
    28    15    16   ar
    29    16    17   ar
    30    17    18   ar
    31    18    19   ar
    32    19    20   ar
    33    20    21   ar
    34    21    22   ar
    35     6     8    1
    36     8     9    1
    37     8    10    1
    38     3     4   ar
    39     4     5   ar
    40    36    28   ar
    41     5     1   ar
    42    22    14   ar
    43    21    17   ar
    44    11    12    1
@<TRIPOS>MOLECULE
*****
 41 44 0 0 0
SMALL
GASTEIGER

@<TRIPOS>ATOM
      1 N          61.9743   88.2268   11.1891 N.ar    1  UNL1       -0.2252
      2 C          63.2608   88.9428   11.4756 C.ar    1  UNL1        0.1148
      3 C          62.9686   90.0519   12.4424 C.ar    1  UNL1        0.1134
      4 N          61.5016   90.0212   12.7533 N.ar    1  UNL1       -0.1318
      5 N          60.8870   88.8932   11.9787 N.ar    1  UNL1       -0.0638
      6 C          63.9681   91.0214   13.0003 C.3     1  UNL1        0.0813
      7 C          63.8917   91.8269   11.7372 C.3     1  UNL1        0.0220
      8 C          64.0444   90.2158   14.2633 C.3     1  UNL1        0.0187
      9 C          63.8481   90.8838   15.5919 C.3     1  UNL1        0.0017
     10 C          64.3172   88.7423   14.1977 C.3     1  UNL1        0.0017
     11 N          64.9675   91.9908   13.5582 N.3     1  UNL1       -0.2901
     12 H          65.0156   91.8190   14.5624 H       1  UNL1        0.1239
     13 C          66.3789   91.9884   13.0504 C.3     1  UNL1        0.1155
     14 C          66.7495   92.8240   11.8610 C.ar    1  UNL1        0.0781
     15 C          67.4505   92.1966   10.6927 C.ar    1  UNL1        0.0369
     16 C          67.8210   93.0322    9.5033 C.ar    1  UNL1        0.1033
     17 N          67.4905   94.4952    9.4823 N.ar    1  UNL1       -0.2107
     18 N          67.7291   95.5634    8.4567 N.ar    1  UNL1       -0.1621
     19 C          67.1755   96.8510    8.9912 C.ar    1  UNL1        0.1237
     20 C          66.5948   96.5785   10.3471 C.ar    1  UNL1        0.0612
     21 C          66.7894   95.1225   10.6507 C.ar    1  UNL1        0.1651
     22 N          66.4189   94.2869   11.8400 N.ar    1  UNL1       -0.2294
     23 C          61.8048   87.0507   10.2736 C.3     1  UNL1        0.1676
     24 C          62.1466   85.6712   10.7534 C.2     1  UNL1        0.2165
     25 O          61.7169   85.2244   12.1193 O.2     1  UNL1       -0.2901
     26 C          62.9182   84.7386    9.8675 C.3     1  UNL1        0.2712
     27 O          64.0456   83.9271   10.4336 O.3     1  UNL1       -0.4627
     28 C          63.8007   83.0124   11.5969 C.ar    1  UNL1        0.1981
     29 C          63.2554   81.6343   11.3657 C.ar    1  UNL1        0.2034
     30 F          62.9549   81.1709    9.9710 F       1  UNL1       -0.1985
     31 C          63.0107   80.7196   12.5290 C.ar    1  UNL1        0.1728
     32 F          62.4654   79.3415   12.2978 F       1  UNL1       -0.2016
     33 C          63.3111   81.1830   13.9237 C.ar    1  UNL1        0.0641
     34 C          63.8564   82.5611   14.1549 C.ar    1  UNL1        0.1728
     35 F          64.1570   83.0245   15.5496 F       1  UNL1       -0.2016
     36 C          64.1012   83.4757   12.9916 C.ar    1  UNL1        0.2034
     37 F          64.6465   84.8538   13.2228 F       1  UNL1       -0.1985
     38 C          61.2935   87.2541    8.8782 C.3     1  UNL1        0.0321
     39 C          60.0815   86.5062    8.4070 C.3     1  UNL1        0.0024
     40 C          61.5672   85.0947    6.8101 C.3     1  UNL1        0.0000
     41 C          60.2111   85.4712    7.3291 C.3     1  UNL1        0.0001
@<TRIPOS>BOND
     1    40    41    1
     2    41    39    1
     3    39    38    1
     4    38    23    1
     5    23    24    1
     6    24    25    2
     7    24    26    1
     8    26    27    1
     9    27    28    1
    10    28    29   ar
    11    29    30    1
    12    29    31   ar
    13    31    32    1
    14    31    33   ar
    15    33    34   ar
    16    34    35    1
    17    34    36   ar
    18    36    37    1
    19    23     1    1
    20     1     2   ar
    21     2     3   ar
    22     3     6    1
    23     6     7    1
    24     6    11    1
    25    11    13    1
    26    13    14    1
    27    14    15   ar
    28    15    16   ar
    29    16    17   ar
    30    17    18   ar
    31    18    19   ar
    32    19    20   ar
    33    20    21   ar
    34    21    22   ar
    35     6     8    1
    36     8     9    1
    37     8    10    1
    38     3     4   ar
    39     4     5   ar
    40    36    28   ar
    41     5     1   ar
    42    22    14   ar
    43    21    17   ar
    44    11    12    1
@<TRIPOS>MOLECULE
*****
 41 44 0 0 0
SMALL
GASTEIGER

@<TRIPOS>ATOM
      1 N          63.7657   83.6530   13.8678 N.ar    1  UNL1       -0.2252
      2 C          63.5927   85.1427   13.8974 C.ar    1  UNL1        0.1148
      3 C          63.6656   85.5894   15.3275 C.ar    1  UNL1        0.1134
      4 N          63.8837   84.3758   16.1816 N.ar    1  UNL1       -0.1318
      5 N          63.9456   83.1791   15.2795 N.ar    1  UNL1       -0.0638
      6 C          63.5421   87.0018   15.8174 C.3     1  UNL1        0.0813
      7 C          64.5184   87.4502   14.7706 C.3     1  UNL1        0.0220
      8 C          62.5659   86.5533   16.8642 C.3     1  UNL1        0.0187
      9 C          61.2690   85.9187   16.4575 C.3     1  UNL1        0.0017
     10 C          62.8865   86.7395   18.3177 C.3     1  UNL1        0.0017
     11 N          63.4186   88.4141   16.3073 N.3     1  UNL1       -0.2901
     12 H          64.3332   88.6802   16.6722 H       1  UNL1        0.1239
     13 C          62.9959   89.5009   15.3638 C.3     1  UNL1        0.1155
     14 C          64.0000   90.5028   14.8757 C.ar    1  UNL1        0.0781
     15 C          64.0478   90.8697   13.4221 C.ar    1  UNL1        0.0369
     16 C          65.0519   91.8715   12.9340 C.ar    1  UNL1        0.1033
     17 N          66.0081   92.5064   13.8996 N.ar    1  UNL1       -0.2107
     18 N          67.0993   93.5185   13.7126 N.ar    1  UNL1       -0.1621
     19 C          67.7259   93.7771   15.0506 C.ar    1  UNL1        0.1237
     20 C          67.0220   92.9249   16.0646 C.ar    1  UNL1        0.0612
     21 C          65.9604   92.1395   15.3532 C.ar    1  UNL1        0.1651
     22 N          64.9563   91.1377   15.8413 N.ar    1  UNL1       -0.2294
     23 C          63.7600   82.7889   12.6417 C.3     1  UNL1        0.1676
     24 C          63.6751   83.4167   11.2820 C.2     1  UNL1        0.2165
     25 O          64.6959   83.0804   10.2357 O.2     1  UNL1       -0.2901
     26 C          62.5695   84.3807   10.9686 C.3     1  UNL1        0.2712
     27 O          62.7221   85.3554    9.8387 O.3     1  UNL1       -0.4627
     28 C          61.8450   86.5705    9.7729 C.ar    1  UNL1        0.1981
     29 C          62.0322   87.6851   10.7590 C.ar    1  UNL1        0.2034
     30 F          63.0967   87.5847   11.8112 F       1  UNL1       -0.1985
     31 C          61.1551   88.9001   10.6931 C.ar    1  UNL1        0.1728
     32 F          61.3423   90.0147   11.6793 F       1  UNL1       -0.2016
     33 C          60.0906   89.0005    9.6410 C.ar    1  UNL1        0.0641
     34 C          59.9034   87.8859    8.6548 C.ar    1  UNL1        0.1728
     35 F          58.8389   87.9863    7.6027 F       1  UNL1       -0.2016
     36 C          60.7805   86.6709    8.7207 C.ar    1  UNL1        0.2034
     37 F          60.5932   85.5563    7.7346 F       1  UNL1       -0.1985
     38 C          63.8390   81.2970   12.7752 C.3     1  UNL1        0.0321
     39 C          62.5835   80.4897   12.9240 C.3     1  UNL1        0.0024
     40 C          60.2596   80.6165   14.0788 C.3     1  UNL1        0.0000
     41 C          61.7570   80.6113   14.1698 C.3     1  UNL1        0.0001
@<TRIPOS>BOND
     1    40    41    1
     2    41    39    1
     3    39    38    1
     4    38    23    1
     5    23    24    1
     6    24    25    2
     7    24    26    1
     8    26    27    1
     9    27    28    1
    10    28    29   ar
    11    29    30    1
    12    29    31   ar
    13    31    32    1
    14    31    33   ar
    15    33    34   ar
    16    34    35    1
    17    34    36   ar
    18    36    37    1
    19    23     1    1
    20     1     2   ar
    21     2     3   ar
    22     3     6    1
    23     6     7    1
    24     6    11    1
    25    11    13    1
    26    13    14    1
    27    14    15   ar
    28    15    16   ar
    29    16    17   ar
    30    17    18   ar
    31    18    19   ar
    32    19    20   ar
    33    20    21   ar
    34    21    22   ar
    35     6     8    1
    36     8     9    1
    37     8    10    1
    38     3     4   ar
    39     4     5   ar
    40    36    28   ar
    41     5     1   ar
    42    22    14   ar
    43    21    17   ar
    44    11    12    1
@<TRIPOS>MOLECULE
*****
 41 44 0 0 0
SMALL
GASTEIGER

@<TRIPOS>ATOM
      1 N          63.9890   89.7579   14.6301 N.ar    1  UNL1       -0.2252
      2 C          64.3284   88.3067   14.4606 C.ar    1  UNL1        0.1148
      3 C          63.7835   87.5620   15.6433 C.ar    1  UNL1        0.1134
      4 N          63.1073   88.5530   16.5435 N.ar    1  UNL1       -0.1318
      5 N          63.2343   89.9101   15.9174 N.ar    1  UNL1       -0.0638
      6 C          63.8953   86.0856   15.8834 C.3     1  UNL1        0.0813
      7 C          65.0809   86.0262   14.9665 C.3     1  UNL1        0.0220
      8 C          62.7096   86.1450   16.8003 C.3     1  UNL1        0.0187
      9 C          61.3374   85.8483   16.2721 C.3     1  UNL1        0.0017
     10 C          62.8962   86.5011   18.2454 C.3     1  UNL1        0.0017
     11 N          64.0070   84.6091   16.1235 N.3     1  UNL1       -0.2901
     12 H          63.6627   84.4376   17.0682 H       1  UNL1        0.1239
     13 C          63.2935   83.6465   15.2212 C.3     1  UNL1        0.1155
     14 C          63.3318   83.8429   13.7346 C.ar    1  UNL1        0.0781
     15 C          64.2777   83.0360   12.8955 C.ar    1  UNL1        0.0369
     16 C          64.3160   83.2325   11.4089 C.ar    1  UNL1        0.1033
     17 N          63.4084   84.2360   10.7614 N.ar    1  UNL1       -0.2107
     18 N          63.2233   84.6455    9.3303 N.ar    1  UNL1       -0.1621
     19 C          62.1630   85.7055    9.2850 C.ar    1  UNL1        0.1237
     20 C          61.6928   85.9512   10.6880 C.ar    1  UNL1        0.0612
     21 C          62.4624   85.0429   11.6005 C.ar    1  UNL1        0.1651
     22 N          62.4242   84.8464   13.0871 N.ar    1  UNL1       -0.2294
     23 C          64.3422   90.8628   13.6792 C.3     1  UNL1        0.1676
     24 C          65.3811   91.8759   14.0591 C.2     1  UNL1        0.2165
     25 O          65.2735   92.6072   15.3643 O.2     1  UNL1       -0.2901
     26 C          66.5276   92.1578   13.1338 C.3     1  UNL1        0.2712
     27 O          66.8392   93.5696   12.7341 O.3     1  UNL1       -0.4627
     28 C          67.0260   93.9152   11.2865 C.ar    1  UNL1        0.1981
     29 C          66.4534   95.1893   10.7397 C.ar    1  UNL1        0.2034
     30 F          65.6940   96.1177   11.6405 F       1  UNL1       -0.1985
     31 C          66.6402   95.5349    9.2920 C.ar    1  UNL1        0.1728
     32 F          66.0677   96.8089    8.7452 F       1  UNL1       -0.2016
     33 C          67.3996   94.6065    8.3912 C.ar    1  UNL1        0.0641
     34 C          67.9722   93.3325    8.9380 C.ar    1  UNL1        0.1728
     35 F          68.7315   92.4041    8.0372 F       1  UNL1       -0.2016
     36 C          67.7853   92.9869   10.3856 C.ar    1  UNL1        0.2034
     37 F          68.3579   91.7129   10.9325 F       1  UNL1       -0.1985
     38 C          63.6564   90.9548   12.3483 C.3     1  UNL1        0.0321
     39 C          62.5984   89.9575   11.9792 C.3     1  UNL1        0.0024
     40 C          61.2809   89.6764    9.7576 C.3     1  UNL1        0.0000
     41 C          62.5159   89.4369   10.5749 C.3     1  UNL1        0.0001
@<TRIPOS>BOND
     1    40    41    1
     2    41    39    1
     3    39    38    1
     4    38    23    1
     5    23    24    1
     6    24    25    2
     7    24    26    1
     8    26    27    1
     9    27    28    1
    10    28    29   ar
    11    29    30    1
    12    29    31   ar
    13    31    32    1
    14    31    33   ar
    15    33    34   ar
    16    34    35    1
    17    34    36   ar
    18    36    37    1
    19    23     1    1
    20     1     2   ar
    21     2     3   ar
    22     3     6    1
    23     6     7    1
    24     6    11    1
    25    11    13    1
    26    13    14    1
    27    14    15   ar
    28    15    16   ar
    29    16    17   ar
    30    17    18   ar
    31    18    19   ar
    32    19    20   ar
    33    20    21   ar
    34    21    22   ar
    35     6     8    1
    36     8     9    1
    37     8    10    1
    38     3     4   ar
    39     4     5   ar
    40    36    28   ar
    41     5     1   ar
    42    22    14   ar
    43    21    17   ar
    44    11    12    1
@<TRIPOS>MOLECULE
*****
 41 44 0 0 0
SMALL
GASTEIGER

@<TRIPOS>ATOM
      1 N          63.9144   89.6709   14.5623 N.ar    1  UNL1       -0.2252
      2 C          64.2367   88.2162   14.3893 C.ar    1  UNL1        0.1148
      3 C          63.7728   87.4895   15.6168 C.ar    1  UNL1        0.1134
      4 N          63.1638   88.4951   16.5484 N.ar    1  UNL1       -0.1318
      5 N          63.2513   89.8433   15.8967 N.ar    1  UNL1       -0.0638
      6 C          63.8962   86.0159   15.8685 C.3     1  UNL1        0.0813
      7 C          65.0774   85.9573   14.9458 C.3     1  UNL1        0.0220
      8 C          62.7150   86.0746   16.7912 C.3     1  UNL1        0.0187
      9 C          62.9119   86.4018   18.2417 C.3     1  UNL1        0.0017
     10 C          61.3369   85.8060   16.2633 C.3     1  UNL1        0.0017
     11 N          64.0196   84.5424   16.1202 N.3     1  UNL1       -0.2901
     12 H          63.6504   84.3715   17.0556 H       1  UNL1        0.1239
     13 C          63.3448   83.5658   15.2032 C.3     1  UNL1        0.1155
     14 C          63.3608   83.7948   13.7208 C.ar    1  UNL1        0.0781
     15 C          64.2911   83.0040   12.8497 C.ar    1  UNL1        0.0369
     16 C          64.3071   83.2330   11.3673 C.ar    1  UNL1        0.1033
     17 N          63.3927   84.2529   10.7562 N.ar    1  UNL1       -0.2107
     18 N          63.1868   84.6943    9.3375 N.ar    1  UNL1       -0.1621
     19 C          62.1292   85.7580    9.3318 C.ar    1  UNL1        0.1237
     20 C          61.6814   85.9740   10.7470 C.ar    1  UNL1        0.0612
     21 C          62.4623   85.0438   11.6274 C.ar    1  UNL1        0.1651
     22 N          62.4464   84.8147   13.1097 N.ar    1  UNL1       -0.2294
     23 C          64.2042   90.7617   13.5744 C.3     1  UNL1        0.1676
     24 C          65.4284   91.6136   13.7353 C.2     1  UNL1        0.2165
     25 O          66.5518   91.1534   14.6163 O.2     1  UNL1       -0.2901
     26 C          65.5290   92.9257   13.0153 C.3     1  UNL1        0.2712
     27 O          66.8704   93.4500   12.5958 O.3     1  UNL1       -0.4627
     28 C          67.1111   93.8360   11.1665 C.ar    1  UNL1        0.1981
     29 C          67.8599   92.9093   10.2552 C.ar    1  UNL1        0.2034
     30 F          68.3680   91.5965   10.7733 F       1  UNL1       -0.1985
     31 C          68.1006   93.2954    8.8259 C.ar    1  UNL1        0.1728
     32 F          68.8494   92.3687    7.9146 F       1  UNL1       -0.2016
     33 C          67.5925   94.6082    8.3078 C.ar    1  UNL1        0.0641
     34 C          66.8437   95.5349    9.2191 C.ar    1  UNL1        0.1728
     35 F          66.3356   96.8478    8.7011 F       1  UNL1       -0.2016
     36 C          66.6030   95.1488   10.6484 C.ar    1  UNL1        0.2034
     37 F          65.8542   96.0756   11.5597 F       1  UNL1       -0.1985
     38 C          63.2700   91.0007   12.4254 C.3     1  UNL1        0.0321
     39 C          62.7171   89.8389   11.6541 C.3     1  UNL1        0.0024
     40 C          61.1880   89.4930    9.5824 C.3     1  UNL1        0.0000
     41 C          62.4823   89.9626   10.1778 C.3     1  UNL1        0.0001
@<TRIPOS>BOND
     1    40    41    1
     2    41    39    1
     3    39    38    1
     4    38    23    1
     5    23    24    1
     6    24    25    2
     7    24    26    1
     8    26    27    1
     9    27    28    1
    10    28    29   ar
    11    29    30    1
    12    29    31   ar
    13    31    32    1
    14    31    33   ar
    15    33    34   ar
    16    34    35    1
    17    34    36   ar
    18    36    37    1
    19    23     1    1
    20     1     2   ar
    21     2     3   ar
    22     3     6    1
    23     6     7    1
    24     6    11    1
    25    11    13    1
    26    13    14    1
    27    14    15   ar
    28    15    16   ar
    29    16    17   ar
    30    17    18   ar
    31    18    19   ar
    32    19    20   ar
    33    20    21   ar
    34    21    22   ar
    35     6     8    1
    36     8     9    1
    37     8    10    1
    38     3     4   ar
    39     4     5   ar
    40    36    28   ar
    41     5     1   ar
    42    22    14   ar
    43    21    17   ar
    44    11    12    1
@<TRIPOS>MOLECULE
*****
 41 44 0 0 0
SMALL
GASTEIGER

@<TRIPOS>ATOM
      1 N          63.9293   89.8504   14.4990 N.ar    1  UNL1       -0.2252
      2 C          64.2594   88.3884   14.4405 C.ar    1  UNL1        0.1148
      3 C          63.6939   87.7360   15.6671 C.ar    1  UNL1        0.1134
      4 N          63.0142   88.7950   16.4836 N.ar    1  UNL1       -0.1318
      5 N          63.1597   90.1017   15.7617 N.ar    1  UNL1       -0.0638
      6 C          63.7909   86.2804   16.0159 C.3     1  UNL1        0.0813
      7 C          64.9260   86.1241   15.0479 C.3     1  UNL1        0.0220
      8 C          62.6558   86.4367   16.9840 C.3     1  UNL1        0.0187
      9 C          62.9372   86.7037   18.4329 C.3     1  UNL1        0.0017
     10 C          61.2393   86.3259   16.5030 C.3     1  UNL1        0.0017
     11 N          63.8880   84.8248   16.3648 N.3     1  UNL1       -0.2901
     12 H          63.9855   84.7708   17.3787 H       1  UNL1        0.1239
     13 C          62.7801   83.8873   15.9858 C.3     1  UNL1        0.1155
     14 C          62.8246   83.1660   14.6713 C.ar    1  UNL1        0.0781
     15 C          61.9857   81.9409   14.4592 C.ar    1  UNL1        0.0369
     16 C          62.0302   81.2197   13.1446 C.ar    1  UNL1        0.1033
     17 N          62.9138   81.7237   12.0423 N.ar    1  UNL1       -0.2107
     18 N          63.1642   81.2259   10.6496 N.ar    1  UNL1       -0.1621
     19 C          64.1580   82.1434   10.0011 C.ar    1  UNL1        0.1237
     20 C          64.5218   83.2083   10.9929 C.ar    1  UNL1        0.0612
     21 C          63.7528   82.9489   12.2544 C.ar    1  UNL1        0.1651
     22 N          63.7082   83.6701   13.5689 N.ar    1  UNL1       -0.2294
     23 C          64.3031   90.8804   13.4746 C.3     1  UNL1        0.1676
     24 C          63.5198   90.9893   12.1999 C.2     1  UNL1        0.2165
     25 O          64.1823   91.4973   10.9537 O.2     1  UNL1       -0.2901
     26 C          62.0742   90.5903   12.1715 C.3     1  UNL1        0.2712
     27 O          61.6944   89.1413   12.2499 O.3     1  UNL1       -0.4627
     28 C          61.3972   88.3749   10.9952 C.ar    1  UNL1        0.1981
     29 C          62.0648   87.0549   10.7466 C.ar    1  UNL1        0.2034
     30 F          63.0296   86.5011   11.7528 F       1  UNL1       -0.1985
     31 C          61.7676   86.2886    9.4919 C.ar    1  UNL1        0.1728
     32 F          62.4352   84.9686    9.2433 F       1  UNL1       -0.2016
     33 C          60.8028   86.8423    8.4856 C.ar    1  UNL1        0.0641
     34 C          60.1352   88.1624    8.7341 C.ar    1  UNL1        0.1728
     35 F          59.1703   88.7161    7.7279 F       1  UNL1       -0.2016
     36 C          60.4324   88.9286    9.9889 C.ar    1  UNL1        0.2034
     37 F          59.7648   90.2487   10.2374 F       1  UNL1       -0.1985
     38 C          65.4602   91.8015   13.7248 C.3     1  UNL1        0.0321
     39 C          66.4607   91.4757   14.7940 C.3     1  UNL1        0.0024
     40 C          68.4877   92.4508   16.0941 C.3     1  UNL1        0.0000
     41 C          67.0744   92.5766   15.6072 C.3     1  UNL1        0.0001
@<TRIPOS>BOND
     1    40    41    1
     2    41    39    1
     3    39    38    1
     4    38    23    1
     5    23    24    1
     6    24    25    2
     7    24    26    1
     8    26    27    1
     9    27    28    1
    10    28    29   ar
    11    29    30    1
    12    29    31   ar
    13    31    32    1
    14    31    33   ar
    15    33    34   ar
    16    34    35    1
    17    34    36   ar
    18    36    37    1
    19    23     1    1
    20     1     2   ar
    21     2     3   ar
    22     3     6    1
    23     6     7    1
    24     6    11    1
    25    11    13    1
    26    13    14    1
    27    14    15   ar
    28    15    16   ar
    29    16    17   ar
    30    17    18   ar
    31    18    19   ar
    32    19    20   ar
    33    20    21   ar
    34    21    22   ar
    35     6     8    1
    36     8     9    1
    37     8    10    1
    38     3     4   ar
    39     4     5   ar
    40    36    28   ar
    41     5     1   ar
    42    22    14   ar
    43    21    17   ar
    44    11    12    1
@<TRIPOS>MOLECULE
*****
 41 44 0 0 0
SMALL
GASTEIGER

@<TRIPOS>ATOM
      1 N          64.0575   90.1826   15.2167 N.ar    1  UNL1       -0.2252
      2 C          64.3443   88.7322   14.9638 C.ar    1  UNL1        0.1148
      3 C          63.5704   87.9254   15.9640 C.ar    1  UNL1        0.1134
      4 N          62.8053   88.8773   16.8349 N.ar    1  UNL1       -0.1318
      5 N          63.1063   90.2723   16.3731 N.ar    1  UNL1       -0.0638
      6 C          63.5628   86.4295   16.0738 C.3     1  UNL1        0.0813
      7 C          62.7479   86.5258   17.3295 C.3     1  UNL1        0.0220
      8 C          64.3778   86.3332   14.8182 C.3     1  UNL1        0.0187
      9 C          65.7210   85.6662   14.8452 C.3     1  UNL1        0.0017
     10 C          63.8494   86.9038   13.5355 C.3     1  UNL1        0.0017
     11 N          63.5553   84.9335   16.1837 N.3     1  UNL1       -0.2901
     12 H          63.6734   84.7103   17.1719 H       1  UNL1        0.1239
     13 C          62.3690   84.1521   15.7021 C.3     1  UNL1        0.1155
     14 C          62.4993   83.2482   14.5120 C.ar    1  UNL1        0.0781
     15 C          61.9053   81.8714   14.5473 C.ar    1  UNL1        0.0369
     16 C          62.0356   80.9676   13.3573 C.ar    1  UNL1        0.1033
     17 N          62.7600   81.4407   12.1320 N.ar    1  UNL1       -0.2107
     18 N          63.0457   80.7787   10.8166 N.ar    1  UNL1       -0.1621
     19 C          63.8164   81.7464    9.9684 C.ar    1  UNL1        0.1237
     20 C          64.0070   83.0065   10.7595 C.ar    1  UNL1        0.0612
     21 C          63.3541   82.8176   12.0967 C.ar    1  UNL1        0.1651
     22 N          63.2237   83.7214   13.2867 N.ar    1  UNL1       -0.2294
     23 C          64.6226   91.3401   14.4481 C.3     1  UNL1        0.1676
     24 C          65.5521   92.3057   15.1218 C.2     1  UNL1        0.2165
     25 O          65.4662   92.5192   16.6041 O.2     1  UNL1       -0.2901
     26 C          66.5673   93.0579   14.3134 C.3     1  UNL1        0.2712
     27 O          66.1414   94.2247   13.4726 O.3     1  UNL1       -0.4627
     28 C          66.5073   94.2746   12.0188 C.ar    1  UNL1        0.1981
     29 C          67.0794   93.0615   11.3472 C.ar    1  UNL1        0.2034
     30 F          67.2857   91.7984   12.1295 F       1  UNL1       -0.1985
     31 C          67.4453   93.1115    9.8934 C.ar    1  UNL1        0.1728
     32 F          68.0174   91.8984    9.2218 F       1  UNL1       -0.2016
     33 C          67.2390   94.3747    9.1110 C.ar    1  UNL1        0.0641
     34 C          66.6668   95.5878    9.7826 C.ar    1  UNL1        0.1728
     35 F          66.4606   96.8509    9.0003 F       1  UNL1       -0.2016
     36 C          66.3010   95.5378   11.2364 C.ar    1  UNL1        0.2034
     37 F          65.7289   96.7509   11.9079 F       1  UNL1       -0.1985
     38 C          64.2584   91.5321   13.0057 C.3     1  UNL1        0.0321
     39 C          63.4508   90.4895   12.2909 C.3     1  UNL1        0.0024
     40 C          62.3798   89.6026   10.0962 C.3     1  UNL1        0.0000
     41 C          63.0279   90.7130   10.8692 C.3     1  UNL1        0.0001
@<TRIPOS>BOND
     1    40    41    1
     2    41    39    1
     3    39    38    1
     4    38    23    1
     5    23    24    1
     6    24    25    2
     7    24    26    1
     8    26    27    1
     9    27    28    1
    10    28    29   ar
    11    29    30    1
    12    29    31   ar
    13    31    32    1
    14    31    33   ar
    15    33    34   ar
    16    34    35    1
    17    34    36   ar
    18    36    37    1
    19    23     1    1
    20     1     2   ar
    21     2     3   ar
    22     3     6    1
    23     6     7    1
    24     6    11    1
    25    11    13    1
    26    13    14    1
    27    14    15   ar
    28    15    16   ar
    29    16    17   ar
    30    17    18   ar
    31    18    19   ar
    32    19    20   ar
    33    20    21   ar
    34    21    22   ar
    35     6     8    1
    36     8     9    1
    37     8    10    1
    38     3     4   ar
    39     4     5   ar
    40    36    28   ar
    41     5     1   ar
    42    22    14   ar
    43    21    17   ar
    44    11    12    1
@<TRIPOS>MOLECULE
*****
 41 44 0 0 0
SMALL
GASTEIGER

@<TRIPOS>ATOM
      1 N          63.7596   90.6117   12.8305 N.ar    1  UNL1       -0.2252
      2 C          62.7695   89.5771   12.3839 C.ar    1  UNL1        0.1148
      3 C          62.2432   89.9886   11.0409 C.ar    1  UNL1        0.1134
      4 N          62.9080   91.2774   10.6575 N.ar    1  UNL1       -0.1318
      5 N          63.8452   91.6625   11.7636 N.ar    1  UNL1       -0.0638
      6 C          61.2300   89.2423   10.2246 C.3     1  UNL1        0.0813
      7 C          62.3030   88.8476    9.2536 C.3     1  UNL1        0.0220
      8 C          60.1570   89.6370   11.1955 C.3     1  UNL1        0.0187
      9 C          59.5736   91.0181   11.1480 C.3     1  UNL1        0.0017
     10 C          59.6673   88.6506   12.2140 C.3     1  UNL1        0.0017
     11 N          60.2168   88.4960    9.4082 N.3     1  UNL1       -0.2901
     12 H          60.4994   88.5877    8.4325 H       1  UNL1        0.1239
     13 C          59.9831   87.0351    9.6558 C.3     1  UNL1        0.1155
     14 C          61.1470   86.0919    9.7329 C.ar    1  UNL1        0.0781
     15 C          61.9141   85.7444    8.4917 C.ar    1  UNL1        0.0369
     16 C          63.0780   84.8012    8.5688 C.ar    1  UNL1        0.1033
     17 N          63.4746   84.2056    9.8871 N.ar    1  UNL1       -0.2107
     18 N          64.5686   83.2533   10.2697 N.ar    1  UNL1       -0.1621
     19 C          64.4775   83.0124   11.7474 C.ar    1  UNL1        0.1237
     20 C          63.3273   83.8158   12.2781 C.ar    1  UNL1        0.0612
     21 C          62.7075   84.5533   11.1283 C.ar    1  UNL1        0.1651
     22 N          61.5436   85.4964   11.0512 N.ar    1  UNL1       -0.2294
     23 C          64.5290   90.5978   14.1181 C.3     1  UNL1        0.1676
     24 C          65.4980   91.7011   14.4248 C.2     1  UNL1        0.2165
     25 O          65.3976   92.4485   15.7214 O.2     1  UNL1       -0.2901
     26 C          66.5673   92.0570   13.4349 C.3     1  UNL1        0.2712
     27 O          66.7101   93.4733   12.9618 O.3     1  UNL1       -0.4627
     28 C          66.9862   93.7565   11.5150 C.ar    1  UNL1        0.1981
     29 C          66.4689   95.0157   10.8851 C.ar    1  UNL1        0.2034
     30 F          65.6755   95.9919   11.7022 F       1  UNL1       -0.1985
     31 C          66.7450   95.2988    9.4382 C.ar    1  UNL1        0.1728
     32 F          66.2277   96.5581    8.8084 F       1  UNL1       -0.2016
     33 C          67.5384   94.3227    8.6210 C.ar    1  UNL1        0.0641
     34 C          68.0557   93.0634    9.2509 C.ar    1  UNL1        0.1728
     35 F          68.8491   92.0873    8.4338 F       1  UNL1       -0.2016
     36 C          67.7796   92.7803   10.6978 C.ar    1  UNL1        0.2034
     37 F          68.2969   91.5211   11.3276 F       1  UNL1       -0.1985
     38 C          64.3296   89.4807   15.0990 C.3     1  UNL1        0.0321
     39 C          63.3051   89.6118   16.1869 C.3     1  UNL1        0.0024
     40 C          63.3205   87.0497   16.6175 C.3     1  UNL1        0.0000
     41 C          63.0005   88.4420   17.0750 C.3     1  UNL1        0.0001
@<TRIPOS>BOND
     1    40    41    1
     2    41    39    1
     3    39    38    1
     4    38    23    1
     5    23    24    1
     6    24    25    2
     7    24    26    1
     8    26    27    1
     9    27    28    1
    10    28    29   ar
    11    29    30    1
    12    29    31   ar
    13    31    32    1
    14    31    33   ar
    15    33    34   ar
    16    34    35    1
    17    34    36   ar
    18    36    37    1
    19    23     1    1
    20     1     2   ar
    21     2     3   ar
    22     3     6    1
    23     6     7    1
    24     6    11    1
    25    11    13    1
    26    13    14    1
    27    14    15   ar
    28    15    16   ar
    29    16    17   ar
    30    17    18   ar
    31    18    19   ar
    32    19    20   ar
    33    20    21   ar
    34    21    22   ar
    35     6     8    1
    36     8     9    1
    37     8    10    1
    38     3     4   ar
    39     4     5   ar
    40    36    28   ar
    41     5     1   ar
    42    22    14   ar
    43    21    17   ar
    44    11    12    1
