@<TRIPOS>MOLECULE
*****
 16 18 0 0 0
SMALL
GASTEIGER

@<TRIPOS>ATOM
      1 C          61.8225   85.8540   10.2881 C.2     1  UNL1        0.3760
      2 N          61.7271   85.6939   11.7765 N.2     1  UNL1       -0.0308
      3 C          62.6587   84.5914   12.1848 C.2     1  UNL1        0.2321
      4 C          62.9825   83.9948   13.5224 C.2     1  UNL1        0.0498
      5 C          63.9774   82.8769   13.6240 C.2     1  UNL1       -0.0002
      6 C          64.6486   82.3556   12.3879 C.2     1  UNL1       -0.0172
      7 C          64.3247   82.9521   11.0503 C.3     1  UNL1        0.1037
      8 C          63.3298   84.0700   10.9488 C.2     1  UNL1        0.2178
      9 N          62.8130   84.8504    9.7766 N.2     1  UNL1       -0.0347
     10 CL         62.3109   88.7936   10.6347 Cl      1  UNL1       -0.0820
     11 C          61.3052   88.3136    9.6305 C.ar    1  UNL1        0.0651
     12 C          60.5438   89.3035    8.7996 C.ar    1  UNL1        0.0116
     13 C          59.5382   88.8235    7.7954 C.ar    1  UNL1        0.0009
     14 C          59.2941   87.3537    7.6221 C.ar    1  UNL1        0.0003
     15 C          60.0555   86.3639    8.4530 C.ar    1  UNL1        0.0085
     16 C          61.0611   86.8438    9.4572 C.ar    1  UNL1        0.0989
@<TRIPOS>BOND
     1    10    11    1
     2    11    12   ar
     3    12    13   ar
     4    13    14   ar
     5    14    15   ar
     6    15    16   ar
     7    16     1    1
     8     1     2    2
     9     2     3    1
    10     3     4    2
    11     4     5    1
    12     5     6    2
    13     6     7    1
    14     7     8    1
    15     8     9    2
    16    16    11   ar
    17     9     1    1
    18     8     3    1
@<TRIPOS>MOLECULE
*****
 16 18 0 0 0
SMALL
GASTEIGER

@<TRIPOS>ATOM
      1 C          62.0792   88.8463   10.5430 C.2     1  UNL1        0.3760
      2 N          62.7368   90.1884   10.4157 N.2     1  UNL1       -0.0308
      3 C          63.5230   90.4402   11.6681 C.2     1  UNL1        0.2321
      4 C          64.3730   91.5966   12.1042 C.2     1  UNL1        0.0498
      5 C          65.0513   91.5664   13.4417 C.2     1  UNL1       -0.0002
      6 C          64.8795   90.3799   14.3431 C.2     1  UNL1       -0.0172
      7 C          64.0295   89.2235   13.9071 C.3     1  UNL1        0.1037
      8 C          63.3512   89.2537   12.5696 C.2     1  UNL1        0.2178
      9 N          62.4589   88.2686   11.8742 N.2     1  UNL1       -0.0347
     10 CL         62.3860   85.9242    9.9369 Cl      1  UNL1       -0.0820
     11 C          61.3502   86.7351    9.2159 C.ar    1  UNL1        0.0651
     12 C          60.4678   86.0849    8.1919 C.ar    1  UNL1        0.0116
     13 C          59.4320   86.8957    7.4710 C.ar    1  UNL1        0.0009
     14 C          59.2786   88.3566    7.7741 C.ar    1  UNL1        0.0003
     15 C          60.1610   89.0069    8.7981 C.ar    1  UNL1        0.0085
     16 C          61.1968   88.1961    9.5190 C.ar    1  UNL1        0.0989
@<TRIPOS>BOND
     1    10    11    1
     2    11    12   ar
     3    12    13   ar
     4    13    14   ar
     5    14    15   ar
     6    15    16   ar
     7    16     1    1
     8     1     2    2
     9     2     3    1
    10     3     4    2
    11     4     5    1
    12     5     6    2
    13     6     7    1
    14     7     8    1
    15     8     9    2
    16    16    11   ar
    17     9     1    1
    18     8     3    1
@<TRIPOS>MOLECULE
*****
 16 18 0 0 0
SMALL
GASTEIGER

@<TRIPOS>ATOM
      1 C          63.1123   84.8559   13.1613 C.2     1  UNL1        0.3760
      2 N          62.6445   85.8562   12.1462 N.2     1  UNL1       -0.0308
      3 C          63.1006   87.2147   12.5895 C.2     1  UNL1        0.2321
      4 C          62.9300   88.5772   11.9858 C.2     1  UNL1        0.0498
      5 C          63.5093   89.7790   12.6714 C.2     1  UNL1       -0.0002
      6 C          64.2590   89.6183   13.9606 C.2     1  UNL1       -0.0172
      7 C          64.4296   88.2558   14.5642 C.3     1  UNL1        0.1037
      8 C          63.8503   87.0540   13.8787 C.2     1  UNL1        0.2178
      9 N          63.8576   85.5962   14.2321 N.2     1  UNL1       -0.0347
     10 CL         64.1016   83.2532   10.8263 Cl      1  UNL1       -0.0820
     11 C          63.3710   82.5740   11.9465 C.ar    1  UNL1        0.0651
     12 C          63.1350   81.0934   11.8993 C.ar    1  UNL1        0.0116
     13 C          62.4044   80.4142   13.0195 C.ar    1  UNL1        0.0009
     14 C          61.9098   81.2156   14.1870 C.ar    1  UNL1        0.0003
     15 C          62.1458   82.6962   14.2343 C.ar    1  UNL1        0.0085
     16 C          62.8763   83.3754   13.1140 C.ar    1  UNL1        0.0989
@<TRIPOS>BOND
     1    10    11    1
     2    11    12   ar
     3    12    13   ar
     4    13    14   ar
     5    14    15   ar
     6    15    16   ar
     7    16     1    1
     8     1     2    2
     9     2     3    1
    10     3     4    2
    11     4     5    1
    12     5     6    2
    13     6     7    1
    14     7     8    1
    15     8     9    2
    16    16    11   ar
    17     9     1    1
    18     8     3    1
@<TRIPOS>MOLECULE
*****
 16 18 0 0 0
SMALL
GASTEIGER

@<TRIPOS>ATOM
      1 C          62.4153   85.5076   11.7884 C.2     1  UNL1        0.3760
      2 N          61.4175   85.6711   10.6805 N.2     1  UNL1       -0.0308
      3 C          61.3306   87.1309   10.3466 C.2     1  UNL1        0.2321
      4 C          60.5138   87.8830    9.3381 C.2     1  UNL1        0.0498
      5 C          60.6412   89.3738    9.2312 C.2     1  UNL1       -0.0002
      6 C          61.5854   90.1124   10.1328 C.2     1  UNL1       -0.0172
      7 C          62.4022   89.3603   11.1413 C.3     1  UNL1        0.1037
      8 C          62.2748   87.8696   11.2482 C.2     1  UNL1        0.2178
      9 N          62.9452   86.8663   12.1393 N.2     1  UNL1       -0.0347
     10 CL         63.9459   83.4598   10.2186 Cl      1  UNL1       -0.0820
     11 C          63.5787   83.1888   11.6476 C.ar    1  UNL1        0.0651
     12 C          63.9767   81.8939   12.2916 C.ar    1  UNL1        0.0116
     13 C          63.6095   81.6228   13.7204 C.ar    1  UNL1        0.0009
     14 C          62.8442   82.6466   14.5052 C.ar    1  UNL1        0.0003
     15 C          62.4461   83.9416   13.8612 C.ar    1  UNL1        0.0085
     16 C          62.8134   84.2126   12.4324 C.ar    1  UNL1        0.0989
@<TRIPOS>BOND
     1    10    11    1
     2    11    12   ar
     3    12    13   ar
     4    13    14   ar
     5    14    15   ar
     6    15    16   ar
     7    16     1    1
     8     1     2    2
     9     2     3    1
    10     3     4    2
    11     4     5    1
    12     5     6    2
    13     6     7    1
    14     7     8    1
    15     8     9    2
    16    16    11   ar
    17     9     1    1
    18     8     3    1
@<TRIPOS>MOLECULE
*****
 16 18 0 0 0
SMALL
GASTEIGER

@<TRIPOS>ATOM
      1 C          62.4728   89.1995   11.0772 C.2     1  UNL1        0.3760
      2 N          61.5122   89.9031   10.1650 N.2     1  UNL1       -0.0308
      3 C          60.8212   88.8658    9.3302 C.2     1  UNL1        0.2321
      4 C          59.7752   88.9721    8.2605 C.2     1  UNL1        0.0498
      5 C          59.2627   87.7336    7.5870 C.2     1  UNL1       -0.0002
      6 C          59.7963   86.3889    7.9834 C.2     1  UNL1       -0.0172
      7 C          60.8424   86.2827    9.0531 C.3     1  UNL1        0.1037
      8 C          61.3548   87.5211    9.7265 C.2     1  UNL1        0.2178
      9 N          62.3755   87.7274   10.8062 N.2     1  UNL1       -0.0347
     10 CL         63.7448   91.8448   10.4573 Cl      1  UNL1       -0.0820
     11 C          64.0086   91.1758   11.7737 C.ar    1  UNL1        0.0651
     12 C          64.9084   91.8295   12.7802 C.ar    1  UNL1        0.0116
     13 C          65.1723   91.1606   14.0966 C.ar    1  UNL1        0.0009
     14 C          64.5363   89.8379   14.4065 C.ar    1  UNL1        0.0003
     15 C          63.6364   89.1842   13.4000 C.ar    1  UNL1        0.0085
     16 C          63.3726   89.8532   12.0837 C.ar    1  UNL1        0.0989
@<TRIPOS>BOND
     1    10    11    1
     2    11    12   ar
     3    12    13   ar
     4    13    14   ar
     5    14    15   ar
     6    15    16   ar
     7    16     1    1
     8     1     2    2
     9     2     3    1
    10     3     4    2
    11     4     5    1
    12     5     6    2
    13     6     7    1
    14     7     8    1
    15     8     9    2
    16    16    11   ar
    17     9     1    1
    18     8     3    1
@<TRIPOS>MOLECULE
*****
 16 18 0 0 0
SMALL
GASTEIGER

@<TRIPOS>ATOM
      1 C          64.5101   89.8332   14.1939 C.2     1  UNL1        0.3760
      2 N          63.9551   90.1593   12.8390 N.2     1  UNL1       -0.0308
      3 C          64.6452   91.3942   12.3403 C.2     1  UNL1        0.2321
      4 C          64.5066   92.1771   11.0684 C.2     1  UNL1        0.0498
      5 C          65.3496   93.3971   10.8431 C.2     1  UNL1       -0.0002
      6 C          66.3312   93.8343   11.8897 C.2     1  UNL1       -0.0172
      7 C          66.4697   93.0514   13.1617 C.3     1  UNL1        0.1037
      8 C          65.6267   91.8314   13.3869 C.2     1  UNL1        0.2178
      9 N          65.5432   90.8666   14.5325 N.2     1  UNL1       -0.0347
     10 CL         63.0713   90.3265   16.7797 Cl      1  UNL1       -0.0820
     11 C          63.3840   88.9234   16.3512 C.ar    1  UNL1        0.0651
     12 C          62.9772   87.7669   17.2156 C.ar    1  UNL1        0.0116
     13 C          63.2899   86.3639   16.7872 C.ar    1  UNL1        0.0009
     14 C          64.0093   86.1173   15.4943 C.ar    1  UNL1        0.0003
     15 C          64.4160   87.2737   14.6298 C.ar    1  UNL1        0.0085
     16 C          64.1033   88.6768   15.0583 C.ar    1  UNL1        0.0989
@<TRIPOS>BOND
     1    10    11    1
     2    11    12   ar
     3    12    13   ar
     4    13    14   ar
     5    14    15   ar
     6    15    16   ar
     7    16     1    1
     8     1     2    2
     9     2     3    1
    10     3     4    2
    11     4     5    1
    12     5     6    2
    13     6     7    1
    14     7     8    1
    15     8     9    2
    16    16    11   ar
    17     9     1    1
    18     8     3    1
@<TRIPOS>MOLECULE
*****
 16 18 0 0 0
SMALL
GASTEIGER

@<TRIPOS>ATOM
      1 C          62.6599   85.1323   12.1761 C.2     1  UNL1        0.3760
      2 N          62.0472   85.7206   10.9397 N.2     1  UNL1       -0.0308
      3 C          62.2642   87.2044   10.9758 C.2     1  UNL1        0.2321
      4 C          61.8782   88.2986   10.0252 C.2     1  UNL1        0.0498
      5 C          62.2390   89.7216   10.3332 C.2     1  UNL1       -0.0002
      6 C          62.9859   90.0504   11.5919 C.2     1  UNL1       -0.0172
      7 C          63.3718   88.9562   12.5425 C.3     1  UNL1        0.1037
      8 C          63.0110   87.5332   12.2344 C.2     1  UNL1        0.2178
      9 N          63.2556   86.2526   12.9762 N.2     1  UNL1       -0.0347
     10 CL         62.1398   84.3029   15.0118 Cl      1  UNL1       -0.0820
     11 C          62.4144   83.2643   13.9649 C.ar    1  UNL1        0.0651
     12 C          62.4289   81.8110   14.3359 C.ar    1  UNL1        0.0116
     13 C          62.7034   80.7724   13.2891 C.ar    1  UNL1        0.0009
     14 C          62.9635   81.1871   11.8712 C.ar    1  UNL1        0.0003
     15 C          62.9490   82.6404   11.5002 C.ar    1  UNL1        0.0085
     16 C          62.6744   83.6790   12.5471 C.ar    1  UNL1        0.0989
@<TRIPOS>BOND
     1    10    11    1
     2    11    12   ar
     3    12    13   ar
     4    13    14   ar
     5    14    15   ar
     6    15    16   ar
     7    16     1    1
     8     1     2    2
     9     2     3    1
    10     3     4    2
    11     4     5    1
    12     5     6    2
    13     6     7    1
    14     7     8    1
    15     8     9    2
    16    16    11   ar
    17     9     1    1
    18     8     3    1
@<TRIPOS>MOLECULE
*****
 16 18 0 0 0
SMALL
GASTEIGER

@<TRIPOS>ATOM
      1 C          62.4461   85.7418   11.7105 C.2     1  UNL1        0.3760
      2 N          62.7590   84.5554   10.8476 N.2     1  UNL1       -0.0308
      3 C          62.8118   83.3425   11.7286 C.2     1  UNL1        0.2321
      4 C          63.0789   81.8968   11.4310 C.2     1  UNL1        0.0498
      5 C          63.0657   80.8878   12.5409 C.2     1  UNL1       -0.0002
      6 C          62.7855   81.3246   13.9483 C.2     1  UNL1       -0.0172
      7 C          62.5185   82.7703   14.2458 C.3     1  UNL1        0.1037
      8 C          62.5316   83.7793   13.1359 C.2     1  UNL1        0.2178
      9 N          62.3056   85.2621   13.1247 N.2     1  UNL1       -0.0347
     10 CL         60.7230   86.3650    9.3351 Cl      1  UNL1       -0.0820
     11 C          61.4380   87.4706   10.0538 C.ar    1  UNL1        0.0651
     12 C          61.2914   88.8879    9.5848 C.ar    1  UNL1        0.0116
     13 C          62.0064   89.9935   10.3034 C.ar    1  UNL1        0.0009
     14 C          62.8679   89.6818   11.4910 C.ar    1  UNL1        0.0003
     15 C          63.0145   88.2646   11.9600 C.ar    1  UNL1        0.0085
     16 C          62.2996   87.1590   11.2414 C.ar    1  UNL1        0.0989
@<TRIPOS>BOND
     1    10    11    1
     2    11    12   ar
     3    12    13   ar
     4    13    14   ar
     5    14    15   ar
     6    15    16   ar
     7    16     1    1
     8     1     2    2
     9     2     3    1
    10     3     4    2
    11     4     5    1
    12     5     6    2
    13     6     7    1
    14     7     8    1
    15     8     9    2
    16    16    11   ar
    17     9     1    1
    18     8     3    1
@<TRIPOS>MOLECULE
*****
 16 18 0 0 0
SMALL
GASTEIGER

@<TRIPOS>ATOM
      1 C          63.1883   85.7479   12.9729 C.2     1  UNL1        0.3760
      2 N          62.7064   86.7452   11.9614 N.2     1  UNL1       -0.0308
      3 C          63.1501   88.1075   12.4058 C.2     1  UNL1        0.2321
      4 C          62.9633   89.4693   11.8055 C.2     1  UNL1        0.0498
      5 C          63.5325   90.6757   12.4913 C.2     1  UNL1       -0.0002
      6 C          64.2886   90.5203   13.7774 C.2     1  UNL1       -0.0172
      7 C          64.4754   89.1585   14.3778 C.3     1  UNL1        0.1037
      8 C          63.9062   87.9521   13.6919 C.2     1  UNL1        0.2178
      9 N          63.9298   86.4938   14.0424 N.2     1  UNL1       -0.0347
     10 CL         62.2310   84.2918   15.4150 Cl      1  UNL1       -0.0820
     11 C          62.4888   83.5370   14.1446 C.ar    1  UNL1        0.0651
     12 C          62.2680   82.0542   14.0952 C.ar    1  UNL1        0.0116
     13 C          62.5259   81.2994   12.8249 C.ar    1  UNL1        0.0009
     14 C          63.0045   82.0274   11.6039 C.ar    1  UNL1        0.0003
     15 C          63.2253   83.5102   11.6533 C.ar    1  UNL1        0.0085
     16 C          62.9675   84.2650   12.9236 C.ar    1  UNL1        0.0989
@<TRIPOS>BOND
     1    10    11    1
     2    11    12   ar
     3    12    13   ar
     4    13    14   ar
     5    14    15   ar
     6    15    16   ar
     7    16     1    1
     8     1     2    2
     9     2     3    1
    10     3     4    2
    11     4     5    1
    12     5     6    2
    13     6     7    1
    14     7     8    1
    15     8     9    2
    16    16    11   ar
    17     9     1    1
    18     8     3    1
