@<TRIPOS>MOLECULE
*****
 34 38 0 0 0
SMALL
GASTEIGER

@<TRIPOS>ATOM
      1 C          62.7364   86.8455   11.8930 C.2     1  UNL1        0.2506
      2 O          63.5535   87.4947   12.9705 O.2     1  UNL1       -0.2699
      3 N          61.7010   87.6411   11.1549 N.am    1  UNL1       -0.2723
      4 C          60.8838   86.9920   10.0774 C.3     1  UNL1        0.1257
      5 C          59.8484   87.7876    9.3393 C.3     1  UNL1        0.1637
      6 O          59.6300   89.2323    9.6786 O.3     1  UNL1       -0.3502
      7 C          60.4471   89.8814   10.7561 C.3     1  UNL1        0.1622
      8 C          61.4826   89.0858   11.4942 C.3     1  UNL1        0.1097
      9 C          63.6098   81.0667   10.5357 C.3     1  UNL1        0.0311
     10 C          63.3915   82.5114   10.8750 C.ar    1  UNL1       -0.0203
     11 C          63.2215   83.5218    9.7795 C.ar    1  UNL1       -0.0040
     12 C          63.0031   84.9665   10.1188 C.ar    1  UNL1        0.0058
     13 C          62.9548   85.4008   11.5537 C.ar    1  UNL1        0.0729
     14 C          63.1248   84.3905   12.6492 C.ar    1  UNL1        0.1069
     15 C          63.3431   82.9458   12.3099 C.ar    1  UNL1        0.0168
     16 N          63.0764   84.8248   14.0842 N.ar    1  UNL1       -0.1477
     17 N          64.2236   85.3769   14.8774 N.ar    1  UNL1       -0.1447
     18 C          63.7286   85.6767   16.2613 C.ar    1  UNL1        0.1446
     19 C          62.2755   85.3098   16.3234 C.ar    1  UNL1        0.1446
     20 N          61.8724   84.7834   14.9779 N.ar    1  UNL1       -0.1447
     21 C          62.2997   89.7350   12.5717 C.3     1  UNL1        0.0510
     22 C          63.4350   90.6448   12.2067 C.ar    1  UNL1        0.0071
     23 C          64.4795   90.9873   13.2273 C.ar    1  UNL1       -0.0004
     24 C          65.6148   91.8972   12.8623 C.ar    1  UNL1        0.0192
     25 C          65.7056   92.4646   11.4768 C.ar    1  UNL1        0.0038
     26 C          64.6610   92.1222   10.4562 C.ar    1  UNL1        0.0294
     27 C          63.5257   91.2123   10.8212 C.ar    1  UNL1        0.1362
     28 F          62.4811   90.8698    9.8005 F       1  UNL1       -0.2045
     29 C          66.6594   92.2397   13.8829 C.ar    1  UNL1        0.1029
     30 C          66.2689   92.4423   15.3169 C.ar    1  UNL1        0.0226
     31 C          67.3134   92.7848   16.3376 C.ar    1  UNL1        0.0241
     32 C          68.7485   92.9246   15.9241 C.ar    1  UNL1        0.1222
     33 N          69.1391   92.7220   14.4901 N.ar    1  UNL1       -0.1464
     34 N          68.0945   92.3795   13.4695 N.ar    1  UNL1       -0.1480
@<TRIPOS>BOND
     1     9    10    1
     2    10    11   ar
     3    11    12   ar
     4    12    13   ar
     5    13     1    1
     6     1     2    2
     7     1     3   am
     8     3     4    1
     9     4     5    1
    10     5     6    1
    11     6     7    1
    12     7     8    1
    13     8    21    1
    14    21    22    1
    15    22    23   ar
    16    23    24   ar
    17    24    29    1
    18    29    30   ar
    19    30    31   ar
    20    31    32   ar
    21    32    33   ar
    22    33    34   ar
    23    24    25   ar
    24    25    26   ar
    25    26    27   ar
    26    27    28    1
    27    13    14   ar
    28    14    16    1
    29    16    17   ar
    30    17    18   ar
    31    18    19   ar
    32    19    20   ar
    33    14    15   ar
    34    15    10   ar
    35     8     3    1
    36    27    22   ar
    37    20    16   ar
    38    34    29   ar
@<TRIPOS>MOLECULE
*****
 34 38 0 0 0
SMALL
GASTEIGER

@<TRIPOS>ATOM
      1 C          62.9727   87.0944   12.2773 C.2     1  UNL1        0.2506
      2 O          63.5346   87.5010   13.6073 O.2     1  UNL1       -0.2699
      3 N          62.3036   88.1129   11.4029 N.am    1  UNL1       -0.2723
      4 C          61.7417   87.7064   10.0728 C.3     1  UNL1        0.1257
      5 C          61.0726   88.7249    9.1983 C.3     1  UNL1        0.1637
      6 O          60.9654   90.1501    9.6538 O.3     1  UNL1       -0.3502
      7 C          61.5273   90.5567   10.9838 C.3     1  UNL1        0.1622
      8 C          62.1964   89.5381   11.8584 C.3     1  UNL1        0.1097
      9 C          63.4016   81.3938   10.4553 C.3     1  UNL1        0.0311
     10 C          63.2944   82.8190   10.9108 C.ar    1  UNL1       -0.0203
     11 C          63.2148   83.9252    9.9009 C.ar    1  UNL1       -0.0040
     12 C          63.1075   85.3503   10.3564 C.ar    1  UNL1        0.0058
     13 C          63.0800   85.6692   11.8218 C.ar    1  UNL1        0.0729
     14 C          63.1596   84.5631   12.8317 C.ar    1  UNL1        0.1069
     15 C          63.2668   83.1379   12.3762 C.ar    1  UNL1        0.0168
     16 N          63.1321   84.8820   14.2972 N.ar    1  UNL1       -0.1477
     17 N          61.9214   84.8564   15.1825 N.ar    1  UNL1       -0.1447
     18 C          62.3513   85.2411   16.5671 C.ar    1  UNL1        0.1446
     19 C          63.8278   85.5044   16.5376 C.ar    1  UNL1        0.1446
     20 N          64.3103   85.2824   15.1347 N.ar    1  UNL1       -0.1447
     21 C          62.7583   89.9447   13.1883 C.3     1  UNL1        0.0510
     22 C          64.0708   90.6675   13.2588 C.ar    1  UNL1        0.0071
     23 C          64.5296   91.5035   12.1010 C.ar    1  UNL1       -0.0004
     24 C          65.8421   92.2263   12.1714 C.ar    1  UNL1        0.0192
     25 C          66.6957   92.1132   13.3996 C.ar    1  UNL1        0.0038
     26 C          66.2368   91.2772   14.5574 C.ar    1  UNL1        0.0294
     27 C          64.9244   90.5543   14.4870 C.ar    1  UNL1        0.1362
     28 F          64.4655   89.7183   15.6448 F       1  UNL1       -0.2045
     29 C          66.3010   93.0623   11.0135 C.ar    1  UNL1        0.1029
     30 C          67.4122   92.5761   10.1312 C.ar    1  UNL1        0.0226
     31 C          67.8711   93.4121    8.9733 C.ar    1  UNL1        0.0241
     32 C          67.2186   94.7343    8.6978 C.ar    1  UNL1        0.1222
     33 N          66.1073   95.2206    9.5803 N.ar    1  UNL1       -0.1464
     34 N          65.6485   94.3846   10.7381 N.ar    1  UNL1       -0.1480
@<TRIPOS>BOND
     1     9    10    1
     2    10    11   ar
     3    11    12   ar
     4    12    13   ar
     5    13     1    1
     6     1     2    2
     7     1     3   am
     8     3     4    1
     9     4     5    1
    10     5     6    1
    11     6     7    1
    12     7     8    1
    13     8    21    1
    14    21    22    1
    15    22    23   ar
    16    23    24   ar
    17    24    29    1
    18    29    30   ar
    19    30    31   ar
    20    31    32   ar
    21    32    33   ar
    22    33    34   ar
    23    24    25   ar
    24    25    26   ar
    25    26    27   ar
    26    27    28    1
    27    13    14   ar
    28    14    16    1
    29    16    17   ar
    30    17    18   ar
    31    18    19   ar
    32    19    20   ar
    33    14    15   ar
    34    15    10   ar
    35     8     3    1
    36    27    22   ar
    37    20    16   ar
    38    34    29   ar
@<TRIPOS>MOLECULE
*****
 34 38 0 0 0
SMALL
GASTEIGER

@<TRIPOS>ATOM
      1 C          65.0307   91.3044   12.6799 C.2     1  UNL1        0.2506
      2 O          65.8388   90.7916   13.8349 O.2     1  UNL1       -0.2699
      3 N          63.8700   90.5068   12.1639 N.am    1  UNL1       -0.2723
      4 C          63.0618   91.0195   11.0089 C.3     1  UNL1        0.1257
      5 C          61.9011   90.2219   10.4928 C.3     1  UNL1        0.1637
      6 O          61.5484   88.9114   11.1318 O.3     1  UNL1       -0.3502
      7 C          62.3565   88.3986   12.2868 C.3     1  UNL1        0.1622
      8 C          63.5173   89.1963   12.8029 C.3     1  UNL1        0.1097
      9 C          66.4415   96.5463   10.1241 C.3     1  UNL1        0.0311
     10 C          66.0888   95.2358   10.7630 C.ar    1  UNL1       -0.0203
     11 C          65.2102   94.2602   10.0377 C.ar    1  UNL1       -0.0040
     12 C          64.8575   92.9497   10.6767 C.ar    1  UNL1        0.0058
     13 C          65.3834   92.6149   12.0410 C.ar    1  UNL1        0.0729
     14 C          66.2620   93.5905   12.7662 C.ar    1  UNL1        0.1069
     15 C          66.6147   94.9010   12.1273 C.ar    1  UNL1        0.0168
     16 N          66.7880   93.2558   14.1306 N.ar    1  UNL1       -0.1477
     17 N          65.9752   93.1469   15.3866 N.ar    1  UNL1       -0.1447
     18 C          66.9039   92.7949   16.5107 C.ar    1  UNL1        0.1446
     19 C          68.2907   92.6863   15.9494 C.ar    1  UNL1        0.1446
     20 N          68.2191   92.9711   14.4784 N.ar    1  UNL1       -0.1447
     21 C          64.3253   88.6835   13.9579 C.3     1  UNL1        0.0510
     22 C          63.8707   87.4682   14.7104 C.ar    1  UNL1        0.0071
     23 C          63.8096   86.1379   14.0200 C.ar    1  UNL1       -0.0004
     24 C          63.3550   84.9226   14.7725 C.ar    1  UNL1        0.0192
     25 C          62.9615   85.0375   16.2154 C.ar    1  UNL1        0.0038
     26 C          63.0226   86.3677   16.9057 C.ar    1  UNL1        0.0294
     27 C          63.4772   87.5831   16.1532 C.ar    1  UNL1        0.1362
     28 F          63.5383   88.9134   16.8437 F       1  UNL1       -0.2045
     29 C          63.2939   83.5922   14.0821 C.ar    1  UNL1        0.1029
     30 C          62.9051   83.5152   12.6355 C.ar    1  UNL1        0.0226
     31 C          62.8440   82.1849   11.9450 C.ar    1  UNL1        0.0241
     32 C          63.1718   80.9317   12.7013 C.ar    1  UNL1        0.1222
     33 N          63.5606   81.0088   14.1480 N.ar    1  UNL1       -0.1464
     34 N          63.6217   82.3390   14.8384 N.ar    1  UNL1       -0.1480
@<TRIPOS>BOND
     1     9    10    1
     2    10    11   ar
     3    11    12   ar
     4    12    13   ar
     5    13     1    1
     6     1     2    2
     7     1     3   am
     8     3     4    1
     9     4     5    1
    10     5     6    1
    11     6     7    1
    12     7     8    1
    13     8    21    1
    14    21    22    1
    15    22    23   ar
    16    23    24   ar
    17    24    29    1
    18    29    30   ar
    19    30    31   ar
    20    31    32   ar
    21    32    33   ar
    22    33    34   ar
    23    24    25   ar
    24    25    26   ar
    25    26    27   ar
    26    27    28    1
    27    13    14   ar
    28    14    16    1
    29    16    17   ar
    30    17    18   ar
    31    18    19   ar
    32    19    20   ar
    33    14    15   ar
    34    15    10   ar
    35     8     3    1
    36    27    22   ar
    37    20    16   ar
    38    34    29   ar
@<TRIPOS>MOLECULE
*****
 34 38 0 0 0
SMALL
GASTEIGER

@<TRIPOS>ATOM
      1 C          63.4810   87.4656   13.3748 C.2     1  UNL1        0.2506
      2 O          63.5432   88.5821   12.3751 O.2     1  UNL1       -0.2699
      3 N          63.3783   87.7747   14.8389 N.am    1  UNL1       -0.2723
      4 C          63.3161   86.6582   15.8387 C.3     1  UNL1        0.1257
      5 C          63.2134   86.9673   17.3029 C.3     1  UNL1        0.1637
      6 O          63.1728   88.3930   17.7673 O.3     1  UNL1       -0.3502
      7 C          63.2350   89.5096   16.7676 C.3     1  UNL1        0.1622
      8 C          63.3377   89.2004   15.3034 C.3     1  UNL1        0.1097
      9 C          63.6432   81.7628   11.5169 C.3     1  UNL1        0.0311
     10 C          63.6027   83.1885   11.9814 C.ar    1  UNL1       -0.0203
     11 C          64.4156   83.6141   13.1679 C.ar    1  UNL1       -0.0040
     12 C          64.3750   85.0398   13.6324 C.ar    1  UNL1        0.0058
     13 C          63.5216   86.0399   12.9103 C.ar    1  UNL1        0.0729
     14 C          62.7086   85.6142   11.7238 C.ar    1  UNL1        0.1069
     15 C          62.7492   84.1885   11.2593 C.ar    1  UNL1        0.0168
     16 N          61.8551   86.6143   11.0016 N.ar    1  UNL1       -0.1477
     17 N          60.6154   87.2663   11.5384 N.ar    1  UNL1       -0.1447
     18 C          60.0855   88.1928   10.4845 C.ar    1  UNL1        0.1446
     19 C          60.9977   88.1135    9.2964 C.ar    1  UNL1        0.1446
     20 N          62.0914   87.1379    9.6160 N.ar    1  UNL1       -0.1447
     21 C          63.3999   90.3170   14.3037 C.3     1  UNL1        0.0510
     22 C          64.5783   91.2450   14.2881 C.ar    1  UNL1        0.0071
     23 C          65.2260   91.6129   12.9861 C.ar    1  UNL1       -0.0004
     24 C          66.4044   92.5409   12.9705 C.ar    1  UNL1        0.0192
     25 C          66.9351   93.1009   14.2568 C.ar    1  UNL1        0.0038
     26 C          66.2874   92.7330   15.5588 C.ar    1  UNL1        0.0294
     27 C          65.1090   91.8050   15.5744 C.ar    1  UNL1        0.1362
     28 F          64.4613   91.4371   16.8764 F       1  UNL1       -0.2045
     29 C          67.0521   92.9088   11.6685 C.ar    1  UNL1        0.1029
     30 C          67.8083   91.8746   10.8884 C.ar    1  UNL1        0.0226
     31 C          68.4560   92.2425    9.5864 C.ar    1  UNL1        0.0241
     32 C          68.3474   93.6446    9.0645 C.ar    1  UNL1        0.1222
     33 N          67.5912   94.6788    9.8447 N.ar    1  UNL1       -0.1464
     34 N          66.9435   94.3109   11.1467 N.ar    1  UNL1       -0.1480
@<TRIPOS>BOND
     1     9    10    1
     2    10    11   ar
     3    11    12   ar
     4    12    13   ar
     5    13     1    1
     6     1     2    2
     7     1     3   am
     8     3     4    1
     9     4     5    1
    10     5     6    1
    11     6     7    1
    12     7     8    1
    13     8    21    1
    14    21    22    1
    15    22    23   ar
    16    23    24   ar
    17    24    29    1
    18    29    30   ar
    19    30    31   ar
    20    31    32   ar
    21    32    33   ar
    22    33    34   ar
    23    24    25   ar
    24    25    26   ar
    25    26    27   ar
    26    27    28    1
    27    13    14   ar
    28    14    16    1
    29    16    17   ar
    30    17    18   ar
    31    18    19   ar
    32    19    20   ar
    33    14    15   ar
    34    15    10   ar
    35     8     3    1
    36    27    22   ar
    37    20    16   ar
    38    34    29   ar
@<TRIPOS>MOLECULE
*****
 34 38 0 0 0
SMALL
GASTEIGER

@<TRIPOS>ATOM
      1 C          62.6422   88.7188   11.6602 C.2     1  UNL1        0.2506
      2 O          62.4962   90.2114   11.6361 O.2     1  UNL1       -0.2699
      3 N          63.3466   88.0526   12.8047 N.am    1  UNL1       -0.2723
      4 C          63.4926   86.5598   12.8289 C.3     1  UNL1        0.1257
      5 C          64.1969   85.8936   13.9734 C.3     1  UNL1        0.1637
      6 O          64.7553   86.7200   15.0938 O.3     1  UNL1       -0.3502
      7 C          64.6093   88.2126   15.0697 C.3     1  UNL1        0.1622
      8 C          63.9049   88.8790   13.9251 C.3     1  UNL1        0.1097
      9 C          60.4088   85.4131    7.1786 C.3     1  UNL1        0.0311
     10 C          60.9672   86.2395    8.2990 C.ar    1  UNL1       -0.0203
     11 C          62.4120   86.1082    8.6799 C.ar    1  UNL1       -0.0040
     12 C          62.9704   86.9347    9.8003 C.ar    1  UNL1        0.0058
     13 C          62.0839   87.8924   10.5398 C.ar    1  UNL1        0.0729
     14 C          60.6390   88.0237   10.1589 C.ar    1  UNL1        0.1069
     15 C          60.0807   87.1973    9.0385 C.ar    1  UNL1        0.0168
     16 N          59.7525   88.9814   10.8983 N.ar    1  UNL1       -0.1477
     17 N          58.9460   88.6694   12.1240 N.ar    1  UNL1       -0.1447
     18 C          58.2118   89.9144   12.5252 C.ar    1  UNL1        0.1446
     19 C          58.5646   90.9959   11.5474 C.ar    1  UNL1        0.1446
     20 N          59.5167   90.4193   10.5420 N.ar    1  UNL1       -0.1447
     21 C          63.7589   90.3716   13.9010 C.3     1  UNL1        0.0510
     22 C          64.9776   91.2434   13.8322 C.ar    1  UNL1        0.0071
     23 C          65.5201   91.6705   12.5006 C.ar    1  UNL1       -0.0004
     24 C          66.7388   92.5423   12.4318 C.ar    1  UNL1        0.0192
     25 C          67.4151   92.9870   13.6947 C.ar    1  UNL1        0.0038
     26 C          66.8727   92.5598   15.0263 C.ar    1  UNL1        0.0294
     27 C          65.6539   91.6880   15.0951 C.ar    1  UNL1        0.1362
     28 F          65.1115   91.2609   16.4268 F       1  UNL1       -0.2045
     29 C          67.2812   92.9694   11.1001 C.ar    1  UNL1        0.1029
     30 C          68.0042   91.9818   10.2330 C.ar    1  UNL1        0.0226
     31 C          68.5466   92.4090    8.9013 C.ar    1  UNL1        0.0241
     32 C          68.3660   93.8237    8.4367 C.ar    1  UNL1        0.1222
     33 N          67.6429   94.8114    9.3039 N.ar    1  UNL1       -0.1464
     34 N          67.1006   94.3842   10.6355 N.ar    1  UNL1       -0.1480
@<TRIPOS>BOND
     1     9    10    1
     2    10    11   ar
     3    11    12   ar
     4    12    13   ar
     5    13     1    1
     6     1     2    2
     7     1     3   am
     8     3     4    1
     9     4     5    1
    10     5     6    1
    11     6     7    1
    12     7     8    1
    13     8    21    1
    14    21    22    1
    15    22    23   ar
    16    23    24   ar
    17    24    29    1
    18    29    30   ar
    19    30    31   ar
    20    31    32   ar
    21    32    33   ar
    22    33    34   ar
    23    24    25   ar
    24    25    26   ar
    25    26    27   ar
    26    27    28    1
    27    13    14   ar
    28    14    16    1
    29    16    17   ar
    30    17    18   ar
    31    18    19   ar
    32    19    20   ar
    33    14    15   ar
    34    15    10   ar
    35     8     3    1
    36    27    22   ar
    37    20    16   ar
    38    34    29   ar
@<TRIPOS>MOLECULE
*****
 34 38 0 0 0
SMALL
GASTEIGER

@<TRIPOS>ATOM
      1 C          63.3822   87.3760   13.1135 C.2     1  UNL1        0.2506
      2 O          63.3177   88.0364   11.7683 O.2     1  UNL1       -0.2699
      3 N          63.3074   88.2060   14.3607 N.am    1  UNL1       -0.2723
      4 C          63.3718   87.5457   15.7061 C.3     1  UNL1        0.1257
      5 C          63.2970   88.3756   16.9533 C.3     1  UNL1        0.1637
      6 O          63.1578   89.8659   16.8552 O.3     1  UNL1       -0.3502
      7 C          63.0933   90.5263   15.5100 C.3     1  UNL1        0.1622
      8 C          63.1681   89.6963   14.2627 C.3     1  UNL1        0.1097
      9 C          63.9392   81.4148   13.5058 C.3     1  UNL1        0.0311
     10 C          63.7999   82.9051   13.4077 C.ar    1  UNL1       -0.0203
     11 C          64.4262   83.7869   14.4470 C.ar    1  UNL1       -0.0040
     12 C          64.2870   85.2772   14.3489 C.ar    1  UNL1        0.0058
     13 C          63.5214   85.8857   13.2116 C.ar    1  UNL1        0.0729
     14 C          62.8951   85.0040   12.1723 C.ar    1  UNL1        0.1069
     15 C          63.0344   83.5137   12.2704 C.ar    1  UNL1        0.0168
     16 N          62.1295   85.6125   11.0349 N.ar    1  UNL1       -0.1477
     17 N          60.8829   86.4383   11.1531 N.ar    1  UNL1       -0.1447
     18 C          60.4590   86.8382    9.7709 C.ar    1  UNL1        0.1446
     19 C          61.4437   86.2595    8.7985 C.ar    1  UNL1        0.1446
     20 N          62.4761   85.5020    9.5797 N.ar    1  UNL1       -0.1447
     21 C          63.1037   90.3566   12.9174 C.3     1  UNL1        0.0510
     22 C          64.2261   91.2411   12.4615 C.ar    1  UNL1        0.0071
     23 C          65.3422   91.5823   13.4038 C.ar    1  UNL1       -0.0004
     24 C          66.4647   92.4668   12.9479 C.ar    1  UNL1        0.0192
     25 C          66.4710   93.0100   11.5497 C.ar    1  UNL1        0.0038
     26 C          65.3549   92.6688   10.6075 C.ar    1  UNL1        0.0294
     27 C          64.2324   91.7844   11.0634 C.ar    1  UNL1        0.1362
     28 F          63.1163   91.4432   10.1211 F       1  UNL1       -0.2045
     29 C          67.5808   92.8080   13.8902 C.ar    1  UNL1        0.1029
     30 C          67.3044   93.6306   15.1136 C.ar    1  UNL1        0.0226
     31 C          68.4206   93.9718   16.0559 C.ar    1  UNL1        0.0241
     32 C          69.8131   93.4903   15.7747 C.ar    1  UNL1        0.1222
     33 N          70.0895   92.6676   14.5512 N.ar    1  UNL1       -0.1464
     34 N          68.9733   92.3264   13.6090 N.ar    1  UNL1       -0.1480
@<TRIPOS>BOND
     1     9    10    1
     2    10    11   ar
     3    11    12   ar
     4    12    13   ar
     5    13     1    1
     6     1     2    2
     7     1     3   am
     8     3     4    1
     9     4     5    1
    10     5     6    1
    11     6     7    1
    12     7     8    1
    13     8    21    1
    14    21    22    1
    15    22    23   ar
    16    23    24   ar
    17    24    29    1
    18    29    30   ar
    19    30    31   ar
    20    31    32   ar
    21    32    33   ar
    22    33    34   ar
    23    24    25   ar
    24    25    26   ar
    25    26    27   ar
    26    27    28    1
    27    13    14   ar
    28    14    16    1
    29    16    17   ar
    30    17    18   ar
    31    18    19   ar
    32    19    20   ar
    33    14    15   ar
    34    15    10   ar
    35     8     3    1
    36    27    22   ar
    37    20    16   ar
    38    34    29   ar
