@<TRIPOS>MOLECULE
*****
 31 35 0 0 0
SMALL
GASTEIGER

@<TRIPOS>ATOM
      1 C          62.0972   88.7522   11.1126 C.3     1  UNL1        0.0182
      2 C          63.0036   89.5286   12.0211 C.3     1  UNL1        0.0053
      3 C          63.9338   90.5001   12.6853 C.3     1  UNL1        0.0436
      4 C          64.2366   91.5953   11.7061 C.3     1  UNL1        0.1660
      5 C          63.4936   91.3007   10.4368 C.3     1  UNL1        0.0436
      6 C          62.7316   90.0235   10.6314 C.3     1  UNL1        0.0053
      7 C          61.2076   87.5699   10.8657 C.3     1  UNL1        0.0718
      8 N          61.4419   86.2872   11.6070 N.am    1  UNL1       -0.3025
      9 C          62.3197   85.2265   11.0116 C.2     1  UNL1        0.2458
     10 O          62.9631   85.4486    9.6750 O.2     1  UNL1       -0.2701
     11 H          61.0196   86.1414   12.4843 H       1  UNL1        0.1497
     12 C          62.5541   83.9437   11.7529 C.ar    1  UNL1        0.0534
     13 C          62.3944   83.8990   13.2437 C.ar    1  UNL1        0.0054
     14 C          62.6288   82.6161   13.9850 C.ar    1  UNL1        0.0115
     15 C          63.0229   81.3781   13.2355 C.ar    1  UNL1        0.0577
     16 CL         63.2573   80.0953   13.9767 Cl      1  UNL1       -0.0822
     17 C          63.1826   81.4228   11.7446 C.ar    1  UNL1        0.0115
     18 C          62.9482   82.7056   11.0034 C.ar    1  UNL1        0.0054
     19 C          60.1607   86.9290    8.5759 C.3     1  UNL1        0.0017
     20 C          60.0836   87.6705    9.8775 C.3     1  UNL1        0.0196
     21 O          65.1262   92.7775   11.9529 O.3     1  UNL1       -0.4776
     22 C          66.2988   93.0345   11.0536 C.ar    1  UNL1        0.1589
     23 C          67.3961   92.0178   10.9429 C.ar    1  UNL1        0.0591
     24 C          68.5688   92.2748   10.0436 C.ar    1  UNL1        0.1021
     25 N          68.6441   93.5484    9.2548 N.ar    1  UNL1       -0.2421
     26 C          67.5468   94.5652    9.3654 C.ar    1  UNL1        0.1019
     27 C          67.6221   95.8388    8.5767 C.ar    1  UNL1        0.0223
     28 C          66.5248   96.8554    8.6873 C.ar    1  UNL1        0.0222
     29 C          65.3521   96.5985    9.5867 C.ar    1  UNL1        0.0991
     30 N          65.2768   95.3248   10.3754 N.ar    1  UNL1       -0.2392
     31 C          66.3741   94.3082   10.2648 C.ar    1  UNL1        0.1327
@<TRIPOS>BOND
     1    19    20    1
     2    20     7    1
     3     7     8    1
     4     8     9   am
     5     9    10    2
     6     9    12    1
     7    12    13   ar
     8    13    14   ar
     9    14    15   ar
    10    15    16    1
    11    15    17   ar
    12    17    18   ar
    13     1     7    1
    14     1     2    1
    15     2     3    1
    16     3     4    1
    17     4    21    1
    18    21    22    1
    19    22    23   ar
    20    23    24   ar
    21    24    25   ar
    22    25    26   ar
    23    26    27   ar
    24    27    28   ar
    25    28    29   ar
    26    29    30   ar
    27    30    31   ar
    28     4     5    1
    29     6     5    1
    30    18    12   ar
    31     6     1    1
    32     6     2    1
    33    31    22   ar
    34    31    26   ar
    35     8    11    1
@<TRIPOS>MOLECULE
*****
 31 35 0 0 0
SMALL
GASTEIGER

@<TRIPOS>ATOM
      1 C          61.8224   88.4968   10.8386 C.3     1  UNL1        0.0182
      2 C          62.7203   89.2932   11.7383 C.3     1  UNL1        0.0053
      3 C          63.6348   90.2853   12.3935 C.3     1  UNL1        0.0436
      4 C          63.9024   91.3877   11.4122 C.3     1  UNL1        0.1660
      5 C          63.1531   91.0770   10.1504 C.3     1  UNL1        0.0436
      6 C          62.4226   89.7826   10.3519 C.3     1  UNL1        0.0053
      7 C          60.9574   87.2947   10.6000 C.3     1  UNL1        0.0718
      8 N          61.1920   86.0352   11.3801 N.am    1  UNL1       -0.3025
      9 C          62.2380   85.0585   10.9308 C.2     1  UNL1        0.2458
     10 O          63.0494   85.3413    9.7013 O.2     1  UNL1       -0.2701
     11 H          60.6595   85.8496   12.1871 H       1  UNL1        0.1497
     12 C          62.4726   83.7990   11.7109 C.ar    1  UNL1        0.0534
     13 C          62.4234   83.8250   13.2098 C.ar    1  UNL1        0.0054
     14 C          62.6580   82.5655   13.9900 C.ar    1  UNL1        0.0115
     15 C          62.9419   81.2799   13.2711 C.ar    1  UNL1        0.0577
     16 CL         63.1765   80.0204   14.0511 Cl      1  UNL1       -0.0822
     17 C          62.9911   81.2539   11.7721 C.ar    1  UNL1        0.0115
     18 C          62.7565   82.5134   10.9920 C.ar    1  UNL1        0.0054
     19 C          59.9663   86.5554    8.3150 C.3     1  UNL1        0.0017
     20 C          59.8579   87.3521    9.5813 C.3     1  UNL1        0.0196
     21 O          64.7673   92.5898   11.6507 O.3     1  UNL1       -0.4776
     22 C          66.2101   92.4140   12.0211 C.ar    1  UNL1        0.1589
     23 C          67.2405   92.2132   10.9497 C.ar    1  UNL1        0.0591
     24 C          68.6833   92.0374   11.3202 C.ar    1  UNL1        0.1021
     25 N          69.0959   92.0625   12.7621 N.ar    1  UNL1       -0.2421
     26 C          68.0655   92.2634   13.8336 C.ar    1  UNL1        0.1019
     27 C          68.4780   92.2885   15.2755 C.ar    1  UNL1        0.0223
     28 C          67.4477   92.4893   16.3470 C.ar    1  UNL1        0.0222
     29 C          66.0048   92.6651   15.9765 C.ar    1  UNL1        0.0991
     30 N          65.5923   92.6400   14.5346 N.ar    1  UNL1       -0.2392
     31 C          66.6226   92.4391   13.4631 C.ar    1  UNL1        0.1327
@<TRIPOS>BOND
     1    19    20    1
     2    20     7    1
     3     7     8    1
     4     8     9   am
     5     9    10    2
     6     9    12    1
     7    12    13   ar
     8    13    14   ar
     9    14    15   ar
    10    15    16    1
    11    15    17   ar
    12    17    18   ar
    13     1     7    1
    14     1     2    1
    15     2     3    1
    16     3     4    1
    17     4    21    1
    18    21    22    1
    19    22    23   ar
    20    23    24   ar
    21    24    25   ar
    22    25    26   ar
    23    26    27   ar
    24    27    28   ar
    25    28    29   ar
    26    29    30   ar
    27    30    31   ar
    28     4     5    1
    29     6     5    1
    30    18    12   ar
    31     6     1    1
    32     6     2    1
    33    31    22   ar
    34    31    26   ar
    35     8    11    1
@<TRIPOS>MOLECULE
*****
 31 35 0 0 0
SMALL
GASTEIGER

@<TRIPOS>ATOM
      1 C          64.8404   90.3680   14.1117 C.3     1  UNL1        0.0182
      2 C          64.0177   89.4250   13.2847 C.3     1  UNL1        0.0053
      3 C          63.2673   88.2747   12.6817 C.3     1  UNL1        0.0436
      4 C          63.4411   87.0860   13.5799 C.3     1  UNL1        0.1660
      5 C          64.2990   87.5016   14.7380 C.3     1  UNL1        0.0436
      6 C          64.6553   88.9472   14.5556 C.3     1  UNL1        0.0053
      7 C          65.4223   91.7328   14.3328 C.3     1  UNL1        0.0718
      8 N          65.5175   92.7015   13.1915 N.am    1  UNL1       -0.3025
      9 C          66.7560   92.7455   12.3465 C.2     1  UNL1        0.2458
     10 O          67.8993   91.8208   12.6427 O.2     1  UNL1       -0.2701
     11 H          64.7671   93.3084   12.9971 H       1  UNL1        0.1497
     12 C          66.8512   93.7142   11.2051 C.ar    1  UNL1        0.0534
     13 C          67.5080   93.2993    9.9221 C.ar    1  UNL1        0.0054
     14 C          67.6033   94.2680    8.7807 C.ar    1  UNL1        0.0115
     15 C          67.0416   95.6516    8.9225 C.ar    1  UNL1        0.0577
     16 CL         67.1368   96.6203    7.7813 Cl      1  UNL1       -0.0822
     17 C          66.3847   96.0665   10.2057 C.ar    1  UNL1        0.0115
     18 C          66.2895   95.0978   11.3470 C.ar    1  UNL1        0.0054
     19 C          67.3017   92.6578   15.8697 C.3     1  UNL1        0.0017
     20 C          65.9090   92.1289   15.6953 C.3     1  UNL1        0.0196
     21 O          62.8593   85.7213   13.3588 O.3     1  UNL1       -0.4776
     22 C          63.3145   84.8914   12.1952 C.ar    1  UNL1        0.1589
     23 C          64.2603   83.7479   12.4139 C.ar    1  UNL1        0.0591
     24 C          64.7156   82.9180   11.2503 C.ar    1  UNL1        0.1021
     25 N          64.2250   83.2315    9.8679 N.ar    1  UNL1       -0.2421
     26 C          63.2791   84.3751    9.6492 C.ar    1  UNL1        0.1019
     27 C          62.7885   84.6886    8.2668 C.ar    1  UNL1        0.0223
     28 C          61.8427   85.8321    8.0481 C.ar    1  UNL1        0.0222
     29 C          61.3875   86.6620    9.2117 C.ar    1  UNL1        0.0991
     30 N          61.8781   86.3484   10.5940 N.ar    1  UNL1       -0.2392
     31 C          62.8239   85.2050   10.8128 C.ar    1  UNL1        0.1327
@<TRIPOS>BOND
     1    19    20    1
     2    20     7    1
     3     7     8    1
     4     8     9   am
     5     9    10    2
     6     9    12    1
     7    12    13   ar
     8    13    14   ar
     9    14    15   ar
    10    15    16    1
    11    15    17   ar
    12    17    18   ar
    13     1     7    1
    14     1     2    1
    15     2     3    1
    16     3     4    1
    17     4    21    1
    18    21    22    1
    19    22    23   ar
    20    23    24   ar
    21    24    25   ar
    22    25    26   ar
    23    26    27   ar
    24    27    28   ar
    25    28    29   ar
    26    29    30   ar
    27    30    31   ar
    28     4     5    1
    29     6     5    1
    30    18    12   ar
    31     6     1    1
    32     6     2    1
    33    31    22   ar
    34    31    26   ar
    35     8    11    1
@<TRIPOS>MOLECULE
*****
 31 35 0 0 0
SMALL
GASTEIGER

@<TRIPOS>ATOM
      1 C          65.0359   90.7381   14.1478 C.3     1  UNL1        0.0182
      2 C          64.2338   89.7713   13.3281 C.3     1  UNL1        0.0053
      3 C          63.4740   88.6129   12.7531 C.3     1  UNL1        0.0436
      4 C          63.5085   87.4942   13.7519 C.3     1  UNL1        0.1660
      5 C          64.2896   87.9613   14.9442 C.3     1  UNL1        0.0436
      6 C          64.7379   89.3686   14.6823 C.3     1  UNL1        0.0053
      7 C          65.6712   92.0870   14.3125 C.3     1  UNL1        0.0718
      8 N          65.6917   93.0516   13.1640 N.am    1  UNL1       -0.3025
      9 C          66.8030   92.9964   12.1581 C.2     1  UNL1        0.2458
     10 O          67.8938   91.9767   12.3007 O.2     1  UNL1       -0.2701
     11 H          64.9758   93.7209   13.0704 H       1  UNL1        0.1497
     12 C          66.8236   93.9610   11.0095 C.ar    1  UNL1        0.0534
     13 C          67.4320   93.5550    9.6999 C.ar    1  UNL1        0.0054
     14 C          67.4526   94.5196    8.5513 C.ar    1  UNL1        0.0115
     15 C          66.8648   95.8902    8.7124 C.ar    1  UNL1        0.0577
     16 CL         66.8853   96.8548    7.5639 Cl      1  UNL1       -0.0822
     17 C          66.2563   96.2962   10.0220 C.ar    1  UNL1        0.0115
     18 C          66.2357   95.3316   11.1705 C.ar    1  UNL1        0.0054
     19 C          67.7641   92.7062   15.7217 C.3     1  UNL1        0.0017
     20 C          66.2858   92.4713   15.6257 C.3     1  UNL1        0.0196
     21 O          62.8733   86.1454   13.5872 O.3     1  UNL1       -0.4776
     22 C          62.9007   85.4613   12.2526 C.ar    1  UNL1        0.1589
     23 C          62.6400   86.2469   11.0017 C.ar    1  UNL1        0.0591
     24 C          62.6674   85.5628    9.6670 C.ar    1  UNL1        0.1021
     25 N          62.9556   84.0932    9.5833 N.ar    1  UNL1       -0.2421
     26 C          63.2164   83.3075   10.8343 C.ar    1  UNL1        0.1019
     27 C          63.5046   81.8379   10.7505 C.ar    1  UNL1        0.0223
     28 C          63.7653   81.0523   12.0015 C.ar    1  UNL1        0.0222
     29 C          63.7379   81.7364   13.3361 C.ar    1  UNL1        0.0991
     30 N          63.4497   83.2060   13.4198 N.ar    1  UNL1       -0.2392
     31 C          63.1890   83.9916   12.1689 C.ar    1  UNL1        0.1327
@<TRIPOS>BOND
     1    19    20    1
     2    20     7    1
     3     7     8    1
     4     8     9   am
     5     9    10    2
     6     9    12    1
     7    12    13   ar
     8    13    14   ar
     9    14    15   ar
    10    15    16    1
    11    15    17   ar
    12    17    18   ar
    13     1     7    1
    14     1     2    1
    15     2     3    1
    16     3     4    1
    17     4    21    1
    18    21    22    1
    19    22    23   ar
    20    23    24   ar
    21    24    25   ar
    22    25    26   ar
    23    26    27   ar
    24    27    28   ar
    25    28    29   ar
    26    29    30   ar
    27    30    31   ar
    28     4     5    1
    29     6     5    1
    30    18    12   ar
    31     6     1    1
    32     6     2    1
    33    31    22   ar
    34    31    26   ar
    35     8    11    1
@<TRIPOS>MOLECULE
*****
 31 35 0 0 0
SMALL
GASTEIGER

@<TRIPOS>ATOM
      1 C          61.9175   87.4494    9.5928 C.3     1  UNL1        0.0182
      2 C          62.6515   86.2419    9.0899 C.3     1  UNL1        0.0053
      3 C          63.2872   84.9038    8.8546 C.3     1  UNL1        0.0436
      4 C          62.9699   84.0268   10.0295 C.3     1  UNL1        0.1660
      5 C          62.1382   84.8229   10.9909 C.3     1  UNL1        0.0436
      6 C          61.9414   86.1919   10.4103 C.3     1  UNL1        0.0053
      7 C          61.4798   88.8727    9.4113 C.3     1  UNL1        0.0718
      8 N          62.3960   89.9946    9.8010 N.am    1  UNL1       -0.3025
      9 C          62.9812   90.0399   11.1814 C.2     1  UNL1        0.2458
     10 O          62.6502   88.9633   12.1720 O.2     1  UNL1       -0.2701
     11 H          62.6132   90.7012    9.1508 H       1  UNL1        0.1497
     12 C          63.8974   91.1618   11.5711 C.ar    1  UNL1        0.0534
     13 C          64.3279   92.1690   10.5464 C.ar    1  UNL1        0.0054
     14 C          65.2442   93.2910   10.9362 C.ar    1  UNL1        0.0115
     15 C          65.7298   93.4057   12.3507 C.ar    1  UNL1        0.0577
     16 CL         66.6460   94.5275   12.7405 Cl      1  UNL1       -0.0822
     17 C          65.2992   92.3984   13.3755 C.ar    1  UNL1        0.0115
     18 C          64.3831   91.2765   12.9857 C.ar    1  UNL1        0.0054
     19 C          59.4981   88.2280    7.8598 C.3     1  UNL1        0.0017
     20 C          60.1260   89.1739    8.8401 C.3     1  UNL1        0.0196
     21 O          63.4076   82.6036   10.2110 O.3     1  UNL1       -0.4776
     22 C          63.2550   81.9365   11.5458 C.ar    1  UNL1        0.1589
     23 C          62.6690   80.5585   11.6329 C.ar    1  UNL1        0.0591
     24 C          62.5165   79.8914   12.9677 C.ar    1  UNL1        0.1021
     25 N          62.9498   80.6023   14.2154 N.ar    1  UNL1       -0.2421
     26 C          63.5358   81.9804   14.1283 C.ar    1  UNL1        0.1019
     27 C          63.9692   82.6913   15.3760 C.ar    1  UNL1        0.0223
     28 C          64.5551   84.0693   15.2889 C.ar    1  UNL1        0.0222
     29 C          64.7077   84.7364   13.9541 C.ar    1  UNL1        0.0991
     30 N          64.2743   84.0255   12.7064 N.ar    1  UNL1       -0.2392
     31 C          63.6884   82.6475   12.7936 C.ar    1  UNL1        0.1327
@<TRIPOS>BOND
     1    19    20    1
     2    20     7    1
     3     7     8    1
     4     8     9   am
     5     9    10    2
     6     9    12    1
     7    12    13   ar
     8    13    14   ar
     9    14    15   ar
    10    15    16    1
    11    15    17   ar
    12    17    18   ar
    13     1     7    1
    14     1     2    1
    15     2     3    1
    16     3     4    1
    17     4    21    1
    18    21    22    1
    19    22    23   ar
    20    23    24   ar
    21    24    25   ar
    22    25    26   ar
    23    26    27   ar
    24    27    28   ar
    25    28    29   ar
    26    29    30   ar
    27    30    31   ar
    28     4     5    1
    29     6     5    1
    30    18    12   ar
    31     6     1    1
    32     6     2    1
    33    31    22   ar
    34    31    26   ar
    35     8    11    1
@<TRIPOS>MOLECULE
*****
 31 35 0 0 0
SMALL
GASTEIGER

@<TRIPOS>ATOM
      1 C          59.9190   92.4148    3.4602 C.3     1  UNL1        0.0182
      2 C          58.8521   91.8647    4.3597 C.3     1  UNL1        0.0053
      3 C          58.0202   91.1456    5.3799 C.3     1  UNL1        0.0436
      4 C          58.9212   90.2224    6.1454 C.3     1  UNL1        0.1660
      5 C          60.3099   90.3710    5.5983 C.3     1  UNL1        0.0436
      6 C          60.2673   91.3859    4.4947 C.3     1  UNL1        0.0053
      7 C          60.3340   93.3265    2.3435 C.3     1  UNL1        0.0718
      8 N          59.2961   93.9393    1.4506 N.am    1  UNL1       -0.3025
      9 C          58.9135   93.2598    0.1693 C.2     1  UNL1        0.2458
     10 O          59.5687   91.9676   -0.2192 O.2     1  UNL1       -0.2701
     11 H          58.8661   94.7874    1.7056 H       1  UNL1        0.1497
     12 C          57.8756   93.8726   -0.7237 C.ar    1  UNL1        0.0534
     13 C          56.8150   93.0109   -1.3422 C.ar    1  UNL1        0.0054
     14 C          55.7771   93.6237   -2.2352 C.ar    1  UNL1        0.0115
     15 C          55.8000   95.0982   -2.5097 C.ar    1  UNL1        0.0577
     16 CL         54.7622   95.7110   -3.4026 Cl      1  UNL1       -0.0822
     17 C          56.8607   95.9599   -1.8912 C.ar    1  UNL1        0.0115
     18 C          57.8985   95.3471   -0.9982 C.ar    1  UNL1        0.0054
     19 C          62.7755   92.5024    2.0122 C.3     1  UNL1        0.0017
     20 C          61.7868   93.6253    2.1199 C.3     1  UNL1        0.0196
     21 O          58.5063   89.3108    7.2620 O.3     1  UNL1       -0.4776
     22 C          59.4675   88.2885    7.7920 C.ar    1  UNL1        0.1589
     23 C          59.5170   86.9187    7.1828 C.ar    1  UNL1        0.0591
     24 C          60.4782   85.8964    7.7129 C.ar    1  UNL1        0.1021
     25 N          61.3899   86.2439    8.8522 N.ar    1  UNL1       -0.2421
     26 C          61.3404   87.6138    9.4615 C.ar    1  UNL1        0.1019
     27 C          62.2521   87.9612   10.6007 C.ar    1  UNL1        0.0223
     28 C          62.2026   89.3310   11.2100 C.ar    1  UNL1        0.0222
     29 C          61.2414   90.3533   10.6799 C.ar    1  UNL1        0.0991
     30 N          60.3297   90.0058    9.5406 N.ar    1  UNL1       -0.2392
     31 C          60.3792   88.6361    8.9314 C.ar    1  UNL1        0.1327
@<TRIPOS>BOND
     1    19    20    1
     2    20     7    1
     3     7     8    1
     4     8     9   am
     5     9    10    2
     6     9    12    1
     7    12    13   ar
     8    13    14   ar
     9    14    15   ar
    10    15    16    1
    11    15    17   ar
    12    17    18   ar
    13     1     7    1
    14     1     2    1
    15     2     3    1
    16     3     4    1
    17     4    21    1
    18    21    22    1
    19    22    23   ar
    20    23    24   ar
    21    24    25   ar
    22    25    26   ar
    23    26    27   ar
    24    27    28   ar
    25    28    29   ar
    26    29    30   ar
    27    30    31   ar
    28     4     5    1
    29     6     5    1
    30    18    12   ar
    31     6     1    1
    32     6     2    1
    33    31    22   ar
    34    31    26   ar
    35     8    11    1
@<TRIPOS>MOLECULE
*****
 31 35 0 0 0
SMALL
GASTEIGER

@<TRIPOS>ATOM
      1 C          61.0663   87.6632    9.6634 C.3     1  UNL1        0.0182
      2 C          62.0098   86.7069    8.9960 C.3     1  UNL1        0.0053
      3 C          62.9370   85.5960    8.6009 C.3     1  UNL1        0.0436
      4 C          63.0565   84.6562    9.7639 C.3     1  UNL1        0.1660
      5 C          62.2032   85.1864   10.8778 C.3     1  UNL1        0.0436
      6 C          61.5562   86.4537   10.4032 C.3     1  UNL1        0.0053
      7 C          60.2387   88.9136    9.6216 C.3     1  UNL1        0.0718
      8 N          60.2846   89.8034    8.4150 N.am    1  UNL1       -0.3025
      9 C          59.4297   89.4939    7.2220 C.2     1  UNL1        0.2458
     10 O          58.5289   88.2946    7.2356 O.2     1  UNL1       -0.2701
     11 H          60.8758   90.5905    8.4060 H       1  UNL1        0.1497
     12 C          59.4755   90.3837    6.0152 C.ar    1  UNL1        0.0534
     13 C          60.7872   90.6780    5.3497 C.ar    1  UNL1        0.0054
     14 C          60.8330   91.5678    4.1430 C.ar    1  UNL1        0.0115
     15 C          59.5672   92.1633    3.6018 C.ar    1  UNL1        0.0577
     16 CL         59.6130   93.0531    2.3951 Cl      1  UNL1       -0.0822
     17 C          58.2555   91.8690    4.2673 C.ar    1  UNL1        0.0115
     18 C          58.2097   90.9792    5.4740 C.ar    1  UNL1        0.0054
     19 C          59.6580   90.5060   11.5906 C.3     1  UNL1        0.0017
     20 C          59.3652   89.2741   10.7866 C.3     1  UNL1        0.0196
     21 O          63.8841   83.4059    9.8057 O.3     1  UNL1       -0.4776
     22 C          63.6012   82.3534   10.8364 C.ar    1  UNL1        0.1589
     23 C          63.1074   81.0020   10.4123 C.ar    1  UNL1        0.0591
     24 C          62.8245   79.9495   11.4429 C.ar    1  UNL1        0.1021
     25 N          63.0354   80.2483   12.8976 N.ar    1  UNL1       -0.2421
     26 C          63.5293   81.5998   13.3217 C.ar    1  UNL1        0.1019
     27 C          63.7402   81.8986   14.7764 C.ar    1  UNL1        0.0223
     28 C          64.2341   83.2500   15.2005 C.ar    1  UNL1        0.0222
     29 C          64.5169   84.3025   14.1698 C.ar    1  UNL1        0.0991
     30 N          64.3060   84.0037   12.7152 N.ar    1  UNL1       -0.2392
     31 C          63.8122   82.6523   12.2911 C.ar    1  UNL1        0.1327
@<TRIPOS>BOND
     1    19    20    1
     2    20     7    1
     3     7     8    1
     4     8     9   am
     5     9    10    2
     6     9    12    1
     7    12    13   ar
     8    13    14   ar
     9    14    15   ar
    10    15    16    1
    11    15    17   ar
    12    17    18   ar
    13     1     7    1
    14     1     2    1
    15     2     3    1
    16     3     4    1
    17     4    21    1
    18    21    22    1
    19    22    23   ar
    20    23    24   ar
    21    24    25   ar
    22    25    26   ar
    23    26    27   ar
    24    27    28   ar
    25    28    29   ar
    26    29    30   ar
    27    30    31   ar
    28     4     5    1
    29     6     5    1
    30    18    12   ar
    31     6     1    1
    32     6     2    1
    33    31    22   ar
    34    31    26   ar
    35     8    11    1
@<TRIPOS>MOLECULE
*****
 31 35 0 0 0
SMALL
GASTEIGER

@<TRIPOS>ATOM
      1 C          62.2334   87.6744   11.0185 C.3     1  UNL1        0.0182
      2 C          63.0051   88.3171   12.1327 C.3     1  UNL1        0.0053
      3 C          63.6960   89.2272   13.1044 C.3     1  UNL1        0.0436
      4 C          63.4714   90.6408   12.6558 C.3     1  UNL1        0.1660
      5 C          62.6415   90.6043   11.4067 C.3     1  UNL1        0.0436
      6 C          62.3533   89.1682   11.0834 C.3     1  UNL1        0.0053
      7 C          61.7186   86.4409   10.3376 C.3     1  UNL1        0.0718
      8 N          61.6120   85.1530   11.0991 N.am    1  UNL1       -0.3025
      9 C          62.7702   84.2003   11.1272 C.2     1  UNL1        0.2458
     10 O          64.0351   84.5355   10.3940 O.2     1  UNL1       -0.2701
     11 H          60.7818   84.9330   11.5803 H       1  UNL1        0.1497
     12 C          62.6636   82.9123   11.8888 C.ar    1  UNL1        0.0534
     13 C          62.3701   82.9328   13.3596 C.ar    1  UNL1        0.0054
     14 C          62.2635   81.6448   14.1211 C.ar    1  UNL1        0.0115
     15 C          62.4504   80.3364   13.4117 C.ar    1  UNL1        0.0577
     16 CL         62.3439   79.0485   14.1731 Cl      1  UNL1       -0.0822
     17 C          62.7440   80.3161   11.9408 C.ar    1  UNL1        0.0115
     18 C          62.8506   81.6040   11.1794 C.ar    1  UNL1        0.0054
     19 C          61.9782   85.6017    7.8925 C.3     1  UNL1        0.0017
     20 C          61.3104   86.4954    8.8952 C.3     1  UNL1        0.0196
     21 O          63.9861   91.8742   13.3366 O.3     1  UNL1       -0.4776
     22 C          65.4541   92.0252   13.6056 C.ar    1  UNL1        0.1589
     23 C          65.9592   92.0495   15.0177 C.ar    1  UNL1        0.0591
     24 C          67.4271   92.2005   15.2867 C.ar    1  UNL1        0.1021
     25 N          68.3899   92.3272   14.1435 N.ar    1  UNL1       -0.2421
     26 C          67.8848   92.3029   12.7313 C.ar    1  UNL1        0.1019
     27 C          68.8477   92.4296   11.5881 C.ar    1  UNL1        0.0223
     28 C          68.3426   92.4053   10.1760 C.ar    1  UNL1        0.0222
     29 C          66.8746   92.2543    9.9070 C.ar    1  UNL1        0.0991
     30 N          65.9118   92.1276   11.0502 N.ar    1  UNL1       -0.2392
     31 C          66.4169   92.1519   12.4623 C.ar    1  UNL1        0.1327
@<TRIPOS>BOND
     1    19    20    1
     2    20     7    1
     3     7     8    1
     4     8     9   am
     5     9    10    2
     6     9    12    1
     7    12    13   ar
     8    13    14   ar
     9    14    15   ar
    10    15    16    1
    11    15    17   ar
    12    17    18   ar
    13     1     7    1
    14     1     2    1
    15     2     3    1
    16     3     4    1
    17     4    21    1
    18    21    22    1
    19    22    23   ar
    20    23    24   ar
    21    24    25   ar
    22    25    26   ar
    23    26    27   ar
    24    27    28   ar
    25    28    29   ar
    26    29    30   ar
    27    30    31   ar
    28     4     5    1
    29     6     5    1
    30    18    12   ar
    31     6     1    1
    32     6     2    1
    33    31    22   ar
    34    31    26   ar
    35     8    11    1
