@<TRIPOS>MOLECULE
*****
 29 33 0 0 0
SMALL
GASTEIGER

@<TRIPOS>ATOM
      1 C          63.6098   90.9241   12.9279 C.ar    1  UNL1        0.0585
      2 C          62.7421   90.5609   11.7595 C.ar    1  UNL1        0.0955
      3 N          63.2593   91.2887   10.5542 N.ar    1  UNL1       -0.2292
      4 C          64.4466   92.1018   10.9777 C.ar    1  UNL1        0.1481
      5 C          65.3584   93.0182   10.2169 C.ar    1  UNL1        0.0488
      6 C          66.4869   93.7092   10.9232 C.ar    1  UNL1        0.0622
      7 CL         67.3987   94.6257   10.1625 Cl      1  UNL1       -0.0821
      8 C          66.7035   93.4838   12.3903 C.ar    1  UNL1        0.0305
      9 C          65.7917   92.5674   13.1510 C.ar    1  UNL1        0.0820
     10 N          64.6632   91.8764   12.4447 N.ar    1  UNL1       -0.2928
     11 C          63.4519   90.4230   14.3329 C.3     1  UNL1        0.0514
     12 C          64.1521   89.1689   14.7651 C.3     1  UNL1        0.0480
     13 O          63.6160   86.8879   15.8875 O.co2   1  UNL1       -0.5492
     14 C          63.6355   88.3870   15.9363 C.2     1  UNL1        0.0507
     15 O          63.1385   89.1042   17.1564 O.co2   1  UNL1       -0.5492
     16 C          61.5641   89.6328   11.7910 C.3     1  UNL1        0.1575
     17 N          61.6310   88.3118   11.0835 N.ar    1  UNL1       -0.2726
     18 C          62.4527   87.1284   11.5013 C.ar    1  UNL1        0.3318
     19 O          63.3517   87.0584   12.6999 O.2     1  UNL1       -0.2463
     20 N          62.2174   86.0275   10.5100 N.ar    1  UNL1       -0.2817
     21 C          61.2503   86.5304    9.4795 C.ar    1  UNL1        0.0827
     22 C          60.6529   85.8853    8.2644 C.ar    1  UNL1        0.0395
     23 C          59.6930   86.6518    7.4035 C.ar    1  UNL1        0.1005
     24 N          59.3306   88.0636    7.7579 N.ar    1  UNL1       -0.2407
     25 C          59.9280   88.7088    8.9732 C.ar    1  UNL1        0.1176
     26 C          60.8879   87.9422    9.8340 C.ar    1  UNL1        0.0992
     27 C          62.8399   84.6633   10.5434 C.3     1  UNL1        0.0900
     28 C          63.0500   83.3476   11.2328 C.3     1  UNL1        0.0246
     29 C          63.7082   83.6157    9.9118 C.3     1  UNL1        0.0246
@<TRIPOS>UNITY_ATOM_ATTR
13 1
charge -1
@<TRIPOS>BOND
     1    13    14   ar
     2    14    15   ar
     3    14    12    1
     4    12    11    1
     5    11     1    1
     6     1     2   ar
     7     2    16    1
     8    16    17    1
     9    17    18   ar
    10    18    19    2
    11    18    20   ar
    12    20    27    1
    13    27    28    1
    14    28    29    1
    15    20    21   ar
    16    21    22   ar
    17    22    23   ar
    18    23    24   ar
    19    24    25   ar
    20    25    26   ar
    21     2     3   ar
    22     3     4   ar
    23     4     5   ar
    24     5     6   ar
    25     6     7    1
    26     6     8   ar
    27     8     9   ar
    28     9    10   ar
    29    10     1   ar
    30    26    17   ar
    31    10     4   ar
    32    29    27    1
    33    26    21   ar
@<TRIPOS>MOLECULE
*****
 29 33 0 0 0
SMALL
GASTEIGER

@<TRIPOS>ATOM
      1 C          62.4431   88.4924   11.5129 C.ar    1  UNL1        0.0585
      2 C          63.0389   89.1567   12.7186 C.ar    1  UNL1        0.0955
      3 N          63.6236   88.0888   13.5947 N.ar    1  UNL1       -0.2292
      4 C          63.3892   86.7644   12.9305 C.ar    1  UNL1        0.1481
      5 C          63.7459   85.3636   13.3310 C.ar    1  UNL1        0.0488
      6 C          63.3730   84.2123   12.4449 C.ar    1  UNL1        0.0622
      7 CL         63.7297   82.8114   12.8455 Cl      1  UNL1       -0.0821
      8 C          62.6434   84.4617   11.1583 C.ar    1  UNL1        0.0305
      9 C          62.2868   85.8625   10.7577 C.ar    1  UNL1        0.0820
     10 N          62.6597   87.0139   11.6438 N.ar    1  UNL1       -0.2928
     11 C          61.7521   89.1849   10.3758 C.3     1  UNL1        0.0514
     12 C          60.2549   89.2698   10.3480 C.3     1  UNL1        0.0480
     13 O          58.9657   91.2390   11.4482 O.co2   1  UNL1       -0.5492
     14 C          59.5143   89.8447   11.5189 C.2     1  UNL1        0.0507
     15 O          59.3223   89.0253   12.7606 O.co2   1  UNL1       -0.5492
     16 C          63.0482   90.6303   12.9989 C.3     1  UNL1        0.1575
     17 N          64.2824   91.4378   12.7258 N.ar    1  UNL1       -0.2726
     18 C          64.7269   91.9428   11.3851 C.ar    1  UNL1        0.3318
     19 O          64.0153   91.7288   10.0822 O.2     1  UNL1       -0.2463
     20 N          66.0080   92.6993   11.5762 N.ar    1  UNL1       -0.2817
     21 C          66.3553   92.6620   13.0350 C.ar    1  UNL1        0.0827
     22 C          67.5048   93.2371   13.8081 C.ar    1  UNL1        0.0395
     23 C          67.5878   93.0326   15.2919 C.ar    1  UNL1        0.1005
     24 N          66.5214   92.2530   16.0023 N.ar    1  UNL1       -0.2407
     25 C          65.3718   91.6778   15.2292 C.ar    1  UNL1        0.1176
     26 C          65.2887   91.8823   13.7455 C.ar    1  UNL1        0.0992
     27 C          66.8023   93.3746   10.4978 C.3     1  UNL1        0.0900
     28 C          67.1598   94.6122    9.7291 C.3     1  UNL1        0.0246
     29 C          67.8208   93.3069    9.3986 C.3     1  UNL1        0.0246
@<TRIPOS>UNITY_ATOM_ATTR
13 1
charge -1
@<TRIPOS>BOND
     1    13    14   ar
     2    14    15   ar
     3    14    12    1
     4    12    11    1
     5    11     1    1
     6     1     2   ar
     7     2    16    1
     8    16    17    1
     9    17    18   ar
    10    18    19    2
    11    18    20   ar
    12    20    27    1
    13    27    28    1
    14    28    29    1
    15    20    21   ar
    16    21    22   ar
    17    22    23   ar
    18    23    24   ar
    19    24    25   ar
    20    25    26   ar
    21     2     3   ar
    22     3     4   ar
    23     4     5   ar
    24     5     6   ar
    25     6     7    1
    26     6     8   ar
    27     8     9   ar
    28     9    10   ar
    29    10     1   ar
    30    26    17   ar
    31    10     4   ar
    32    29    27    1
    33    26    21   ar
@<TRIPOS>MOLECULE
*****
 29 33 0 0 0
SMALL
GASTEIGER

@<TRIPOS>ATOM
      1 C          62.2175   87.8480   11.2050 C.ar    1  UNL1        0.0585
      2 C          62.7498   88.7563   12.2735 C.ar    1  UNL1        0.0955
      3 N          63.4913   87.9152   13.2698 N.ar    1  UNL1       -0.2292
      4 C          63.4173   86.4871   12.8171 C.ar    1  UNL1        0.1481
      5 C          63.9651   85.2191   13.4021 C.ar    1  UNL1        0.0488
      6 C          63.7256   83.9096   12.7109 C.ar    1  UNL1        0.0622
      7 CL         64.2734   82.6416   13.2958 Cl      1  UNL1       -0.0821
      8 C          62.9383   83.8680   11.4348 C.ar    1  UNL1        0.0305
      9 C          62.3905   85.1360   10.8499 C.ar    1  UNL1        0.0820
     10 N          62.6301   86.4455   11.5410 N.ar    1  UNL1       -0.2928
     11 C          61.4138   88.2683   10.0103 C.3     1  UNL1        0.0514
     12 C          60.0628   87.6646    9.7651 C.3     1  UNL1        0.0480
     13 O          58.4277   86.8864    7.9021 O.co2   1  UNL1       -0.5492
     14 C          59.8020   86.8971    8.5030 C.2     1  UNL1        0.0507
     15 O          60.9156   86.1404    7.8417 O.co2   1  UNL1       -0.5492
     16 C          62.5718   90.2445   12.3348 C.3     1  UNL1        0.1575
     17 N          63.7672   91.1468   12.2527 N.ar    1  UNL1       -0.2726
     18 C          64.3195   91.7673   11.0036 C.ar    1  UNL1        0.3318
     19 O          63.7731   91.5942    9.6174 O.2     1  UNL1       -0.2463
     20 N          65.5138   92.5911   11.3841 N.ar    1  UNL1       -0.2817
     21 C          65.6999   92.4798   12.8684 C.ar    1  UNL1        0.0827
     22 C          66.7126   93.0759   13.8004 C.ar    1  UNL1        0.0395
     23 C          66.6461   92.7795   15.2694 C.ar    1  UNL1        0.1005
     24 N          65.5666   91.8869   15.8062 N.ar    1  UNL1       -0.2407
     25 C          64.5537   91.2907   14.8741 C.ar    1  UNL1        0.1176
     26 C          64.6204   91.5872   13.4052 C.ar    1  UNL1        0.0992
     27 C          66.3716   93.3864   10.4452 C.3     1  UNL1        0.0900
     28 C          67.4410   93.4432    9.3948 C.3     1  UNL1        0.0246
     29 C          66.7879   94.7075    9.8693 C.3     1  UNL1        0.0246
@<TRIPOS>UNITY_ATOM_ATTR
13 1
charge -1
@<TRIPOS>BOND
     1    13    14   ar
     2    14    15   ar
     3    14    12    1
     4    12    11    1
     5    11     1    1
     6     1     2   ar
     7     2    16    1
     8    16    17    1
     9    17    18   ar
    10    18    19    2
    11    18    20   ar
    12    20    27    1
    13    27    28    1
    14    28    29    1
    15    20    21   ar
    16    21    22   ar
    17    22    23   ar
    18    23    24   ar
    19    24    25   ar
    20    25    26   ar
    21     2     3   ar
    22     3     4   ar
    23     4     5   ar
    24     5     6   ar
    25     6     7    1
    26     6     8   ar
    27     8     9   ar
    28     9    10   ar
    29    10     1   ar
    30    26    17   ar
    31    10     4   ar
    32    29    27    1
    33    26    21   ar
@<TRIPOS>MOLECULE
*****
 29 33 0 0 0
SMALL
GASTEIGER

@<TRIPOS>ATOM
      1 C          62.9368   88.7036   12.3110 C.ar    1  UNL1        0.0585
      2 C          62.6901   90.1807   12.2261 C.ar    1  UNL1        0.0955
      3 N          61.6573   90.4179   11.1645 N.ar    1  UNL1       -0.2292
      4 C          61.2657   89.0873   10.5932 C.ar    1  UNL1        0.1481
      5 C          60.2913   88.7037    9.5194 C.ar    1  UNL1        0.0488
      6 C          60.1076   87.2605    9.1541 C.ar    1  UNL1        0.0622
      7 CL         59.1331   86.8767    8.0802 Cl      1  UNL1       -0.0821
      8 C          60.8984   86.2010    9.8627 C.ar    1  UNL1        0.0305
      9 C          61.8728   86.5847   10.9366 C.ar    1  UNL1        0.0820
     10 N          62.0565   88.0278   11.3018 N.ar    1  UNL1       -0.2928
     11 C          63.8955   88.0219   13.2417 C.3     1  UNL1        0.0514
     12 C          64.2572   88.6638   14.5482 C.3     1  UNL1        0.0480
     13 O          62.4137   89.6780   16.0724 O.co2   1  UNL1       -0.5492
     14 C          63.3328   88.5450   15.7235 C.2     1  UNL1        0.0507
     15 O          63.3275   87.2933   16.5501 O.co2   1  UNL1       -0.5492
     16 C          63.3588   91.2355   13.0570 C.3     1  UNL1        0.1575
     17 N          64.7378   91.7073   12.7024 N.ar    1  UNL1       -0.2726
     18 C          65.2252   92.0514   11.3261 C.ar    1  UNL1        0.3318
     19 O          64.4191   91.9842   10.0629 O.2     1  UNL1       -0.2463
     20 N          66.6601   92.4745   11.4348 N.ar    1  UNL1       -0.2817
     21 C          67.0597   92.3919   12.8783 C.ar    1  UNL1        0.0827
     22 C          68.3517   92.6872   13.5806 C.ar    1  UNL1        0.0395
     23 C          68.4558   92.5082   15.0663 C.ar    1  UNL1        0.1005
     24 N          67.2677   92.0341   15.8496 N.ar    1  UNL1       -0.2407
     25 C          65.9756   91.7388   15.1474 C.ar    1  UNL1        0.1176
     26 C          65.8715   91.9177   13.6617 C.ar    1  UNL1        0.0992
     27 C          67.5409   92.9048   10.2995 C.3     1  UNL1        0.0900
     28 C          68.6520   92.6134    9.3348 C.3     1  UNL1        0.0246
     29 C          67.9555   93.9414    9.2977 C.3     1  UNL1        0.0246
@<TRIPOS>UNITY_ATOM_ATTR
13 1
charge -1
@<TRIPOS>BOND
     1    13    14   ar
     2    14    15   ar
     3    14    12    1
     4    12    11    1
     5    11     1    1
     6     1     2   ar
     7     2    16    1
     8    16    17    1
     9    17    18   ar
    10    18    19    2
    11    18    20   ar
    12    20    27    1
    13    27    28    1
    14    28    29    1
    15    20    21   ar
    16    21    22   ar
    17    22    23   ar
    18    23    24   ar
    19    24    25   ar
    20    25    26   ar
    21     2     3   ar
    22     3     4   ar
    23     4     5   ar
    24     5     6   ar
    25     6     7    1
    26     6     8   ar
    27     8     9   ar
    28     9    10   ar
    29    10     1   ar
    30    26    17   ar
    31    10     4   ar
    32    29    27    1
    33    26    21   ar
@<TRIPOS>MOLECULE
*****
 29 33 0 0 0
SMALL
GASTEIGER

@<TRIPOS>ATOM
      1 C          64.8682   91.8400   11.7968 C.ar    1  UNL1        0.0585
      2 C          63.6256   91.1975   12.3383 C.ar    1  UNL1        0.0955
      3 N          63.8063   91.0112   13.8157 N.ar    1  UNL1       -0.2292
      4 C          65.1606   91.5386   14.1872 C.ar    1  UNL1        0.1481
      5 C          65.8809   91.6185   15.5005 C.ar    1  UNL1        0.0488
      6 C          67.2574   92.2107   15.5660 C.ar    1  UNL1        0.0622
      7 CL         67.9778   92.2906   16.8793 Cl      1  UNL1       -0.0821
      8 C          67.9137   92.7229   14.3182 C.ar    1  UNL1        0.0305
      9 C          67.1934   92.6429   13.0050 C.ar    1  UNL1        0.0820
     10 N          65.8168   92.0508   12.9395 N.ar    1  UNL1       -0.2928
     11 C          65.1183   92.2073   10.3641 C.3     1  UNL1        0.0514
     12 C          65.9942   93.3787   10.0320 C.3     1  UNL1        0.0480
     13 O          67.9798   91.7738    9.5505 O.co2   1  UNL1       -0.5492
     14 C          67.4458   93.1652    9.7202 C.2     1  UNL1        0.0507
     15 O          68.3635   94.3432    9.5780 O.co2   1  UNL1       -0.5492
     16 C          62.4150   90.8095   11.5423 C.3     1  UNL1        0.1575
     17 N          62.1765   89.3703   11.1932 N.ar    1  UNL1       -0.2726
     18 C          62.7697   88.1834   11.8929 C.ar    1  UNL1        0.3318
     19 O          63.7053   88.2274   13.0644 O.2     1  UNL1       -0.2463
     20 N          62.2628   86.9448   11.2153 N.ar    1  UNL1       -0.2817
     21 C          61.3564   87.3662   10.0968 C.ar    1  UNL1        0.0827
     22 C          60.5728   86.5787    9.0891 C.ar    1  UNL1        0.0395
     23 C          59.7358   87.2901    8.0676 C.ar    1  UNL1        0.1005
     24 N          59.6825   88.7891    8.0540 N.ar    1  UNL1       -0.2407
     25 C          60.4661   89.5767    9.0618 C.ar    1  UNL1        0.1176
     26 C          61.3031   88.8653   10.0832 C.ar    1  UNL1        0.0992
     27 C          62.6027   85.5329   11.5903 C.3     1  UNL1        0.0900
     28 C          62.8259   84.4856   12.6408 C.3     1  UNL1        0.0246
     29 C          62.9681   84.1343   11.1894 C.3     1  UNL1        0.0246
@<TRIPOS>UNITY_ATOM_ATTR
13 1
charge -1
@<TRIPOS>BOND
     1    13    14   ar
     2    14    15   ar
     3    14    12    1
     4    12    11    1
     5    11     1    1
     6     1     2   ar
     7     2    16    1
     8    16    17    1
     9    17    18   ar
    10    18    19    2
    11    18    20   ar
    12    20    27    1
    13    27    28    1
    14    28    29    1
    15    20    21   ar
    16    21    22   ar
    17    22    23   ar
    18    23    24   ar
    19    24    25   ar
    20    25    26   ar
    21     2     3   ar
    22     3     4   ar
    23     4     5   ar
    24     5     6   ar
    25     6     7    1
    26     6     8   ar
    27     8     9   ar
    28     9    10   ar
    29    10     1   ar
    30    26    17   ar
    31    10     4   ar
    32    29    27    1
    33    26    21   ar
@<TRIPOS>MOLECULE
*****
 29 33 0 0 0
SMALL
GASTEIGER

@<TRIPOS>ATOM
      1 C          62.4444   88.1326   11.4345 C.ar    1  UNL1        0.0585
      2 C          63.0119   88.9680   12.5437 C.ar    1  UNL1        0.0955
      3 N          63.6560   88.0455   13.5357 N.ar    1  UNL1       -0.2292
      4 C          63.4866   86.6400   13.0396 C.ar    1  UNL1        0.1481
      5 C          63.9175   85.3182   13.6026 C.ar    1  UNL1        0.0488
      6 C          63.5996   84.0502   12.8670 C.ar    1  UNL1        0.0622
      7 CL         64.0304   82.7283   13.4301 Cl      1  UNL1       -0.0821
      8 C          62.8508   84.1041   11.5684 C.ar    1  UNL1        0.0305
      9 C          62.4199   85.4259   11.0054 C.ar    1  UNL1        0.0820
     10 N          62.7378   86.6939   11.7410 N.ar    1  UNL1       -0.2928
     11 C          61.7121   88.6459   10.2302 C.3     1  UNL1        0.0514
     12 C          60.2207   88.8002   10.2687 C.3     1  UNL1        0.0480
     13 O          59.2675   91.0080   11.2523 O.co2   1  UNL1       -0.5492
     14 C          59.5726   89.5465   11.3971 C.2     1  UNL1        0.0507
     15 O          59.2297   88.8313   12.6702 O.co2   1  UNL1       -0.5492
     16 C          62.9467   90.4632   12.6433 C.3     1  UNL1        0.1575
     17 N          64.1895   91.2503   12.9365 N.ar    1  UNL1       -0.2726
     18 C          64.9131   91.2989   14.2496 C.ar    1  UNL1        0.3318
     19 O          64.5208   90.5690   15.4999 O.2     1  UNL1       -0.2463
     20 N          66.0977   92.2056   14.0928 N.ar    1  UNL1       -0.2817
     21 C          66.1064   92.7173   12.6827 C.ar    1  UNL1        0.0827
     22 C          67.0356   93.6445   11.9572 C.ar    1  UNL1        0.0395
     23 C          66.7857   93.9815   10.5170 C.ar    1  UNL1        0.1005
     24 N          65.6064   93.3911    9.8025 N.ar    1  UNL1       -0.2407
     25 C          64.6770   92.4637   10.5280 C.ar    1  UNL1        0.1176
     26 C          64.9270   92.1269   11.9681 C.ar    1  UNL1        0.0992
     27 C          67.0981   92.5415   15.1587 C.3     1  UNL1        0.0900
     28 C          68.1533   93.4549   15.7086 C.3     1  UNL1        0.0246
     29 C          67.7757   92.2100   16.4553 C.3     1  UNL1        0.0246
@<TRIPOS>UNITY_ATOM_ATTR
13 1
charge -1
@<TRIPOS>BOND
     1    13    14   ar
     2    14    15   ar
     3    14    12    1
     4    12    11    1
     5    11     1    1
     6     1     2   ar
     7     2    16    1
     8    16    17    1
     9    17    18   ar
    10    18    19    2
    11    18    20   ar
    12    20    27    1
    13    27    28    1
    14    28    29    1
    15    20    21   ar
    16    21    22   ar
    17    22    23   ar
    18    23    24   ar
    19    24    25   ar
    20    25    26   ar
    21     2     3   ar
    22     3     4   ar
    23     4     5   ar
    24     5     6   ar
    25     6     7    1
    26     6     8   ar
    27     8     9   ar
    28     9    10   ar
    29    10     1   ar
    30    26    17   ar
    31    10     4   ar
    32    29    27    1
    33    26    21   ar
@<TRIPOS>MOLECULE
*****
 29 33 0 0 0
SMALL
GASTEIGER

@<TRIPOS>ATOM
      1 C          62.2746   87.4779   10.9226 C.ar    1  UNL1        0.0585
      2 C          62.7858   88.4674   11.9275 C.ar    1  UNL1        0.0955
      3 N          63.4344   87.7022   13.0428 N.ar    1  UNL1       -0.2292
      4 C          63.3241   86.2399   12.7272 C.ar    1  UNL1        0.1481
      5 C          63.7838   85.0167   13.4637 C.ar    1  UNL1        0.0488
      6 C          63.5266   83.6549   12.8898 C.ar    1  UNL1        0.0622
      7 CL         63.9863   82.4317   13.6263 Cl      1  UNL1       -0.0821
      8 C          62.8098   83.5163   11.5795 C.ar    1  UNL1        0.0305
      9 C          62.3502   84.7395   10.8430 C.ar    1  UNL1        0.0820
     10 N          62.6073   86.1013   11.4169 N.ar    1  UNL1       -0.2928
     11 C          61.5568   87.8073    9.6474 C.3     1  UNL1        0.0514
     12 C          60.1855   87.2546    9.3943 C.3     1  UNL1        0.0480
     13 O          60.9547   85.7164    7.4469 O.co2   1  UNL1       -0.5492
     14 C          59.8902   86.5403    8.1088 C.2     1  UNL1        0.0507
     15 O          58.5304   86.6500    7.4851 O.co2   1  UNL1       -0.5492
     16 C          62.6689   89.9598   11.8336 C.3     1  UNL1        0.1575
     17 N          63.6836   90.8355   12.5069 N.ar    1  UNL1       -0.2726
     18 C          63.9621   90.8905   13.9799 C.ar    1  UNL1        0.3318
     19 O          63.2746   90.0795   15.0380 O.2     1  UNL1       -0.2463
     20 N          65.0487   91.8989   14.2089 N.ar    1  UNL1       -0.2817
     21 C          65.4419   92.4671   12.8775 C.ar    1  UNL1        0.0827
     22 C          66.4590   93.4980   12.4871 C.ar    1  UNL1        0.0395
     23 C          66.6327   93.8718   11.0447 C.ar    1  UNL1        0.1005
     24 N          65.7890   93.2146    9.9929 N.ar    1  UNL1       -0.2407
     25 C          64.7718   92.1836   10.3833 C.ar    1  UNL1        0.1176
     26 C          64.5982   91.8099   11.8256 C.ar    1  UNL1        0.0992
     27 C          65.6386   92.2733   15.5362 C.3     1  UNL1        0.0900
     28 C          65.4911   92.4591   17.0174 C.3     1  UNL1        0.0246
     29 C          66.8078   92.7361   16.3541 C.3     1  UNL1        0.0246
@<TRIPOS>UNITY_ATOM_ATTR
13 1
charge -1
@<TRIPOS>BOND
     1    13    14   ar
     2    14    15   ar
     3    14    12    1
     4    12    11    1
     5    11     1    1
     6     1     2   ar
     7     2    16    1
     8    16    17    1
     9    17    18   ar
    10    18    19    2
    11    18    20   ar
    12    20    27    1
    13    27    28    1
    14    28    29    1
    15    20    21   ar
    16    21    22   ar
    17    22    23   ar
    18    23    24   ar
    19    24    25   ar
    20    25    26   ar
    21     2     3   ar
    22     3     4   ar
    23     4     5   ar
    24     5     6   ar
    25     6     7    1
    26     6     8   ar
    27     8     9   ar
    28     9    10   ar
    29    10     1   ar
    30    26    17   ar
    31    10     4   ar
    32    29    27    1
    33    26    21   ar
@<TRIPOS>MOLECULE
*****
 29 33 0 0 0
SMALL
GASTEIGER

@<TRIPOS>ATOM
      1 C          62.7240   83.8453   13.9028 C.ar    1  UNL1        0.0585
      2 C          63.1877   84.7962   12.8394 C.ar    1  UNL1        0.0955
      3 N          63.4189   84.0096   11.5833 N.ar    1  UNL1       -0.2292
      4 C          63.0982   82.5727   11.8704 C.ar    1  UNL1        0.1481
      5 C          63.1417   81.3437   11.0116 C.ar    1  UNL1        0.0488
      6 C          62.7558   80.0131   11.5865 C.ar    1  UNL1        0.0622
      7 CL         62.7993   78.7839   10.7277 Cl      1  UNL1       -0.0821
      8 C          62.3263   79.9115   13.0201 C.ar    1  UNL1        0.0305
      9 C          62.2827   81.1406   13.8788 C.ar    1  UNL1        0.0820
     10 N          62.6687   82.4712   13.3040 N.ar    1  UNL1       -0.2928
     11 C          62.3766   84.2054   15.3169 C.3     1  UNL1        0.0514
     12 C          63.3493   84.9823   16.1537 C.3     1  UNL1        0.0480
     13 O          62.0040   86.2167   18.0020 O.co2   1  UNL1       -0.5492
     14 C          62.9188   86.2584   16.8140 C.2     1  UNL1        0.0507
     15 O          63.4030   87.5764   16.2863 O.co2   1  UNL1       -0.5492
     16 C          63.3854   86.2740   13.0033 C.3     1  UNL1        0.1575
     17 N          62.7868   87.2255   12.0101 N.ar    1  UNL1       -0.2726
     18 C          61.8188   86.8696   10.9209 C.ar    1  UNL1        0.3318
     19 O          61.2795   85.4997   10.6337 O.2     1  UNL1       -0.2463
     20 N          61.4848   88.1240   10.1693 N.ar    1  UNL1       -0.2817
     21 C          62.2464   89.2553   10.7941 C.ar    1  UNL1        0.0827
     22 C          62.3112   90.7192   10.4740 C.ar    1  UNL1        0.0395
     23 C          63.1806   91.6280   11.2916 C.ar    1  UNL1        0.1005
     24 N          63.9852   91.0727   12.4292 N.ar    1  UNL1       -0.2407
     25 C          63.9205   89.6086   12.7493 C.ar    1  UNL1        0.1176
     26 C          63.0511   88.6999   11.9317 C.ar    1  UNL1        0.0992
     27 C          60.5530   88.2288    8.9987 C.3     1  UNL1        0.0900
     28 C          59.6390   87.5775    8.0034 C.3     1  UNL1        0.0246
     29 C          59.8527   89.0617    7.9661 C.3     1  UNL1        0.0246
@<TRIPOS>UNITY_ATOM_ATTR
13 1
charge -1
@<TRIPOS>BOND
     1    13    14   ar
     2    14    15   ar
     3    14    12    1
     4    12    11    1
     5    11     1    1
     6     1     2   ar
     7     2    16    1
     8    16    17    1
     9    17    18   ar
    10    18    19    2
    11    18    20   ar
    12    20    27    1
    13    27    28    1
    14    28    29    1
    15    20    21   ar
    16    21    22   ar
    17    22    23   ar
    18    23    24   ar
    19    24    25   ar
    20    25    26   ar
    21     2     3   ar
    22     3     4   ar
    23     4     5   ar
    24     5     6   ar
    25     6     7    1
    26     6     8   ar
    27     8     9   ar
    28     9    10   ar
    29    10     1   ar
    30    26    17   ar
    31    10     4   ar
    32    29    27    1
    33    26    21   ar
@<TRIPOS>MOLECULE
*****
 29 33 0 0 0
SMALL
GASTEIGER

@<TRIPOS>ATOM
      1 C          64.9511   91.8921   11.8159 C.ar    1  UNL1        0.0585
      2 C          63.6941   91.2947   12.3753 C.ar    1  UNL1        0.0955
      3 N          63.8932   91.0910   13.8480 N.ar    1  UNL1       -0.2292
      4 C          65.2733   91.5625   14.1988 C.ar    1  UNL1        0.1481
      5 C          66.0190   91.6050   15.4995 C.ar    1  UNL1        0.0488
      6 C          67.4186   92.1426   15.5443 C.ar    1  UNL1        0.0622
      7 CL         68.1645   92.1851   16.8452 Cl      1  UNL1       -0.0821
      8 C          68.0725   92.6377   14.2884 C.ar    1  UNL1        0.0305
      9 C          67.3268   92.5952   12.9877 C.ar    1  UNL1        0.0820
     10 N          65.9271   92.0576   12.9428 N.ar    1  UNL1       -0.2928
     11 C          65.1903   92.2595   10.3814 C.3     1  UNL1        0.0514
     12 C          66.0820   93.4168   10.0421 C.3     1  UNL1        0.0480
     13 O          68.0422   91.7754    9.5799 O.co2   1  UNL1       -0.5492
     14 C          67.5202   93.1774    9.6893 C.2     1  UNL1        0.0507
     15 O          68.4362   94.3399    9.4459 O.co2   1  UNL1       -0.5492
     16 C          62.4554   90.9598   11.5984 C.3     1  UNL1        0.1575
     17 N          62.2135   89.5512   11.1433 N.ar    1  UNL1       -0.2726
     18 C          61.4616   89.1390    9.9124 C.ar    1  UNL1        0.3318
     19 O          60.8197   90.0633    8.9207 O.2     1  UNL1       -0.2463
     20 N          61.4643   87.6405    9.8475 N.ar    1  UNL1       -0.2817
     21 C          62.2179   87.1263   11.0383 C.ar    1  UNL1        0.0827
     22 C          62.5423   85.7355   11.4968 C.ar    1  UNL1        0.0395
     23 C          63.3298   85.5254   12.7561 C.ar    1  UNL1        0.1005
     24 N          63.7928   86.7063   13.5569 N.ar    1  UNL1       -0.2407
     25 C          63.4684   88.0972   13.0984 C.ar    1  UNL1        0.1176
     26 C          62.6809   88.3072   11.8391 C.ar    1  UNL1        0.0992
     27 C          60.8256   86.8031    8.7795 C.3     1  UNL1        0.0900
     28 C          60.9238   85.7229    7.7432 C.3     1  UNL1        0.0246
     29 C          59.6212   86.4327    7.9657 C.3     1  UNL1        0.0246
@<TRIPOS>UNITY_ATOM_ATTR
13 1
charge -1
@<TRIPOS>BOND
     1    13    14   ar
     2    14    15   ar
     3    14    12    1
     4    12    11    1
     5    11     1    1
     6     1     2   ar
     7     2    16    1
     8    16    17    1
     9    17    18   ar
    10    18    19    2
    11    18    20   ar
    12    20    27    1
    13    27    28    1
    14    28    29    1
    15    20    21   ar
    16    21    22   ar
    17    22    23   ar
    18    23    24   ar
    19    24    25   ar
    20    25    26   ar
    21     2     3   ar
    22     3     4   ar
    23     4     5   ar
    24     5     6   ar
    25     6     7    1
    26     6     8   ar
    27     8     9   ar
    28     9    10   ar
    29    10     1   ar
    30    26    17   ar
    31    10     4   ar
    32    29    27    1
    33    26    21   ar
