@<TRIPOS>MOLECULE
*****
 28 31 0 0 0
SMALL
GASTEIGER

@<TRIPOS>ATOM
      1 C          63.1519   87.7795   12.6081 C.ar    1  UNL1        0.0799
      2 C          62.2988   88.1316   11.4256 C.ar    1  UNL1        0.0204
      3 C          61.6127   87.0487   10.6469 C.ar    1  UNL1        0.0365
      4 C          61.7797   85.6137   11.0506 C.ar    1  UNL1        0.0826
      5 N          62.6328   85.2617   12.2330 N.ar    1  UNL1       -0.2918
      6 C          62.9809   83.9458   12.8634 C.ar    1  UNL1        0.0567
      7 C          62.5103   82.5971   12.4057 C.3     1  UNL1        0.0517
      8 C          63.8822   84.2155   14.0317 C.ar    1  UNL1        0.0730
      9 C          64.4711   83.1837   14.9475 C.3     1  UNL1        0.0534
     10 N          64.0911   85.6980   14.1235 N.ar    1  UNL1       -0.2299
     11 C          63.3189   86.3446   13.0118 C.ar    1  UNL1        0.1603
     12 C          60.7596   87.4007    9.4643 C.ar    1  UNL1        0.0828
     13 C          60.5735   88.8373    9.0749 C.ar    1  UNL1        0.0192
     14 C          59.7204   89.1893    7.8924 C.ar    1  UNL1        0.0031
     15 C          59.0534   88.1048    7.0993 C.ar    1  UNL1        0.0207
     16 C          59.2395   86.6682    7.4888 C.ar    1  UNL1        0.0988
     17 N          60.0926   86.3162    8.6713 N.ar    1  UNL1       -0.2438
     18 N          63.8381   88.8625   13.3869 N.pl3   1  UNL1       -0.3267
     19 H          64.5590   88.6342   14.0173 H       1  UNL1        0.1472
     20 C          63.4257   90.2932   13.2053 C.3     1  UNL1        0.1137
     21 C          65.5773   91.3804   14.9910 C.3     1  UNL1        0.0307
     22 C          65.4830   91.8384   13.5658 C.ar    1  UNL1       -0.0245
     23 C          66.4645   92.8400   13.0333 C.ar    1  UNL1       -0.0045
     24 C          66.3702   93.2981   11.6081 C.ar    1  UNL1       -0.0007
     25 C          65.2944   92.7545   10.7153 C.ar    1  UNL1       -0.0045
     26 C          64.3129   91.7529   11.2477 C.ar    1  UNL1       -0.0245
     27 C          63.2371   91.2093   10.3548 C.3     1  UNL1        0.0307
     28 C          64.4072   91.2948   12.6729 C.ar    1  UNL1       -0.0105
@<TRIPOS>BOND
     1    21    22    1
     2    22    23   ar
     3    23    24   ar
     4    24    25   ar
     5    25    26   ar
     6    26    27    1
     7    26    28   ar
     8    28    20    1
     9    20    18    1
    10    18     1    1
    11     1     2   ar
    12     2     3   ar
    13     3    12    1
    14    12    13   ar
    15    13    14   ar
    16    14    15   ar
    17    15    16   ar
    18    16    17   ar
    19     3     4   ar
    20     4     5   ar
    21     5     6   ar
    22     6     7    1
    23     6     8   ar
    24     8     9    1
    25     8    10   ar
    26    10    11   ar
    27    28    22   ar
    28    11     1   ar
    29    17    12   ar
    30    11     5   ar
    31    18    19    1
@<TRIPOS>MOLECULE
*****
 28 31 0 0 0
SMALL
GASTEIGER

@<TRIPOS>ATOM
      1 C          63.1597   87.7972   12.6062 C.ar    1  UNL1        0.0799
      2 C          62.3029   88.1487   11.4262 C.ar    1  UNL1        0.0204
      3 C          61.6142   87.0654   10.6503 C.ar    1  UNL1        0.0365
      4 C          61.7823   85.6306   11.0543 C.ar    1  UNL1        0.0826
      5 N          62.6392   85.2792   12.2342 N.ar    1  UNL1       -0.2918
      6 C          62.9891   83.9637   12.8642 C.ar    1  UNL1        0.0567
      7 C          62.5170   82.6147   12.4088 C.3     1  UNL1        0.0517
      8 C          63.8941   84.2339   14.0296 C.ar    1  UNL1        0.0730
      9 C          64.4859   83.2026   14.9441 C.3     1  UNL1        0.0534
     10 N          64.1035   85.7165   14.1198 N.ar    1  UNL1       -0.2299
     11 C          63.3278   86.3625   13.0102 C.ar    1  UNL1        0.1603
     12 C          60.7574   87.4168    9.4703 C.ar    1  UNL1        0.0828
     13 C          60.5822   88.8522    9.0716 C.ar    1  UNL1        0.0192
     14 C          59.7254   89.2037    7.8916 C.ar    1  UNL1        0.0031
     15 C          59.0437   88.1197    7.1103 C.ar    1  UNL1        0.0207
     16 C          59.2189   86.6843    7.5090 C.ar    1  UNL1        0.0988
     17 N          60.0757   86.3329    8.6890 N.ar    1  UNL1       -0.2438
     18 N          63.8485   88.8805   13.3822 N.pl3   1  UNL1       -0.3267
     19 H          64.5720   88.6526   14.0098 H       1  UNL1        0.1472
     20 C          63.4348   90.3111   13.2020 C.3     1  UNL1        0.1137
     21 C          63.2397   91.2227   10.3505 C.3     1  UNL1        0.0307
     22 C          64.3164   91.7689   11.2406 C.ar    1  UNL1       -0.0245
     23 C          65.2957   92.7711   10.7049 C.ar    1  UNL1       -0.0045
     24 C          66.3724   93.3174   11.5949 C.ar    1  UNL1       -0.0007
     25 C          66.4699   92.8616   13.0207 C.ar    1  UNL1       -0.0045
     26 C          65.4908   91.8595   13.5564 C.ar    1  UNL1       -0.0245
     27 C          65.5883   91.4037   14.9821 C.3     1  UNL1        0.0307
     28 C          64.4140   91.3132   12.6663 C.ar    1  UNL1       -0.0105
@<TRIPOS>BOND
     1    21    22    1
     2    22    23   ar
     3    23    24   ar
     4    24    25   ar
     5    25    26   ar
     6    26    27    1
     7    26    28   ar
     8    28    20    1
     9    20    18    1
    10    18     1    1
    11     1     2   ar
    12     2     3   ar
    13     3    12    1
    14    12    13   ar
    15    13    14   ar
    16    14    15   ar
    17    15    16   ar
    18    16    17   ar
    19     3     4   ar
    20     4     5   ar
    21     5     6   ar
    22     6     7    1
    23     6     8   ar
    24     8     9    1
    25     8    10   ar
    26    10    11   ar
    27    28    22   ar
    28    11     1   ar
    29    17    12   ar
    30    11     5   ar
    31    18    19    1
@<TRIPOS>MOLECULE
*****
 28 31 0 0 0
SMALL
GASTEIGER

@<TRIPOS>ATOM
      1 C          62.3871   88.9775   10.7467 C.ar    1  UNL1        0.0799
      2 C          62.8166   87.8175   11.5952 C.ar    1  UNL1        0.0204
      3 C          62.2378   86.4553   11.3517 C.ar    1  UNL1        0.0365
      4 C          61.2296   86.2531   10.2597 C.ar    1  UNL1        0.0826
      5 N          60.8000   87.4130    9.4112 N.ar    1  UNL1       -0.2918
      6 C          59.8317   87.5180    8.2704 C.ar    1  UNL1        0.0567
      7 C          59.0248   86.3933    7.6926 C.3     1  UNL1        0.0517
      8 C          59.8120   88.9451    7.8089 C.ar    1  UNL1        0.0730
      9 C          58.9819   89.4980    6.6885 C.3     1  UNL1        0.0534
     10 N          60.7682   89.7222    8.6644 N.ar    1  UNL1       -0.2299
     11 C          61.3788   88.7752    9.6547 C.ar    1  UNL1        0.1603
     12 C          62.6673   85.2953   12.2002 C.ar    1  UNL1        0.0828
     13 C          62.6458   83.9053   11.6366 C.ar    1  UNL1        0.0192
     14 C          63.0753   82.7453   12.4850 C.ar    1  UNL1        0.0031
     15 C          63.5263   82.9752   13.8971 C.ar    1  UNL1        0.0207
     16 C          63.5478   84.3651   14.4607 C.ar    1  UNL1        0.0988
     17 N          63.1183   85.5252   13.6122 N.ar    1  UNL1       -0.2438
     18 N          62.9658   90.3398   10.9902 N.pl3   1  UNL1       -0.3267
     19 H          63.2526   90.8959   10.2301 H       1  UNL1        0.1472
     20 C          63.1076   90.8548   12.3919 C.3     1  UNL1        0.1137
     21 C          64.8764   92.6694   10.7860 C.3     1  UNL1        0.0307
     22 C          65.3433   92.1485   12.1129 C.ar    1  UNL1       -0.0245
     23 C          66.6947   92.5349   12.6369 C.ar    1  UNL1       -0.0045
     24 C          67.1617   92.0141   13.9637 C.ar    1  UNL1       -0.0007
     25 C          66.2773   91.1068   14.7667 C.ar    1  UNL1       -0.0045
     26 C          64.9260   90.7204   14.2427 C.ar    1  UNL1       -0.0245
     27 C          64.0416   89.8131   15.0457 C.3     1  UNL1        0.0307
     28 C          64.4590   91.2412   12.9158 C.ar    1  UNL1       -0.0105
@<TRIPOS>BOND
     1    21    22    1
     2    22    23   ar
     3    23    24   ar
     4    24    25   ar
     5    25    26   ar
     6    26    27    1
     7    26    28   ar
     8    28    20    1
     9    20    18    1
    10    18     1    1
    11     1     2   ar
    12     2     3   ar
    13     3    12    1
    14    12    13   ar
    15    13    14   ar
    16    14    15   ar
    17    15    16   ar
    18    16    17   ar
    19     3     4   ar
    20     4     5   ar
    21     5     6   ar
    22     6     7    1
    23     6     8   ar
    24     8     9    1
    25     8    10   ar
    26    10    11   ar
    27    28    22   ar
    28    11     1   ar
    29    17    12   ar
    30    11     5   ar
    31    18    19    1
@<TRIPOS>MOLECULE
*****
 28 31 0 0 0
SMALL
GASTEIGER

@<TRIPOS>ATOM
      1 C          62.0954   88.5582   11.3138 C.ar    1  UNL1        0.0799
      2 C          62.6123   87.3462   12.0305 C.ar    1  UNL1        0.0204
      3 C          62.3138   85.9760   11.4981 C.ar    1  UNL1        0.0365
      4 C          61.4983   85.8178   10.2492 C.ar    1  UNL1        0.0826
      5 N          60.9813   87.0299    9.5325 N.ar    1  UNL1       -0.2918
      6 C          60.1575   87.1852    8.2887 C.ar    1  UNL1        0.0567
      7 C          59.6358   86.0700    7.4317 C.3     1  UNL1        0.0517
      8 C          59.9468   88.6514    8.0522 C.ar    1  UNL1        0.0730
      9 C          59.1775   89.2599    6.9173 C.3     1  UNL1        0.0534
     10 N          60.6405   89.4023    9.1499 N.ar    1  UNL1       -0.2299
     11 C          61.2799   88.4001   10.0648 C.ar    1  UNL1        0.1603
     12 C          62.8307   84.7639   12.2148 C.ar    1  UNL1        0.0828
     13 C          63.4698   83.6500   11.4397 C.ar    1  UNL1        0.0192
     14 C          63.9868   82.4379   12.1563 C.ar    1  UNL1        0.0031
     15 C          63.8646   82.3396   13.6481 C.ar    1  UNL1        0.0207
     16 C          63.2255   83.4535   14.4233 C.ar    1  UNL1        0.0988
     17 N          62.7086   84.6656   13.7066 N.ar    1  UNL1       -0.2438
     18 N          62.3939   89.9285   11.8461 N.pl3   1  UNL1       -0.3267
     19 H          61.7901   90.6786   11.6410 H       1  UNL1        0.1472
     20 C          63.6123   90.1559   12.6909 C.3     1  UNL1        0.1137
     21 C          65.4388   91.1677   14.8450 C.3     1  UNL1        0.0307
     22 C          65.4084   91.8462   13.5076 C.ar    1  UNL1       -0.0245
     23 C          66.2912   93.0306   13.2472 C.ar    1  UNL1       -0.0045
     24 C          66.2608   93.7091   11.9097 C.ar    1  UNL1       -0.0007
     25 C          65.3476   93.2032   10.8327 C.ar    1  UNL1       -0.0045
     26 C          64.4648   92.0188   11.0930 C.ar    1  UNL1       -0.0245
     27 C          63.5515   91.5129   10.0160 C.3     1  UNL1        0.0307
     28 C          64.4951   91.3403   12.4305 C.ar    1  UNL1       -0.0105
@<TRIPOS>BOND
     1    21    22    1
     2    22    23   ar
     3    23    24   ar
     4    24    25   ar
     5    25    26   ar
     6    26    27    1
     7    26    28   ar
     8    28    20    1
     9    20    18    1
    10    18     1    1
    11     1     2   ar
    12     2     3   ar
    13     3    12    1
    14    12    13   ar
    15    13    14   ar
    16    14    15   ar
    17    15    16   ar
    18    16    17   ar
    19     3     4   ar
    20     4     5   ar
    21     5     6   ar
    22     6     7    1
    23     6     8   ar
    24     8     9    1
    25     8    10   ar
    26    10    11   ar
    27    28    22   ar
    28    11     1   ar
    29    17    12   ar
    30    11     5   ar
    31    18    19    1
@<TRIPOS>MOLECULE
*****
 28 31 0 0 0
SMALL
GASTEIGER

@<TRIPOS>ATOM
      1 C          63.1319   86.8966   12.8631 C.ar    1  UNL1        0.0799
      2 C          62.2706   86.6676   11.6567 C.ar    1  UNL1        0.0204
      3 C          61.9530   87.8073   10.7347 C.ar    1  UNL1        0.0365
      4 C          62.4967   89.1760   11.0191 C.ar    1  UNL1        0.0826
      5 N          63.3580   89.4051   12.2256 N.ar    1  UNL1       -0.2918
      6 C          64.0314   90.6346   12.7593 C.ar    1  UNL1        0.0567
      7 C          63.9800   92.0035   12.1484 C.3     1  UNL1        0.0517
      8 C          64.7652   90.2547   14.0112 C.ar    1  UNL1        0.0730
      9 C          65.5765   91.1773   14.8720 C.3     1  UNL1        0.0534
     10 N          64.5454   88.7905   14.2512 N.ar    1  UNL1       -0.2299
     11 C          63.6757   88.2654   13.1476 C.ar    1  UNL1        0.1603
     12 C          61.0916   87.5783    9.5281 C.ar    1  UNL1        0.0828
     13 C          61.0011   86.2101    8.9200 C.ar    1  UNL1        0.0192
     14 C          60.1398   85.9811    7.7135 C.ar    1  UNL1        0.0031
     15 C          59.3688   87.1203    7.1151 C.ar    1  UNL1        0.0207
     16 C          59.4593   88.4885    7.7233 C.ar    1  UNL1        0.0988
     17 N          60.3207   88.7175    8.9298 N.ar    1  UNL1       -0.2438
     18 N          63.4496   85.7569   13.7852 N.pl3   1  UNL1       -0.3267
     19 H          63.1654   85.7919   14.7271 H       1  UNL1        0.1472
     20 C          64.2003   84.5639   13.2721 C.3     1  UNL1        0.1137
     21 C          62.6098   83.5133   15.5887 C.3     1  UNL1        0.0307
     22 C          62.7196   82.7084   14.3277 C.ar    1  UNL1       -0.0245
     23 C          62.0341   81.3781   14.2250 C.ar    1  UNL1       -0.0045
     24 C          62.1439   80.5732   12.9640 C.ar    1  UNL1       -0.0007
     25 C          62.9391   81.0985   11.8057 C.ar    1  UNL1       -0.0045
     26 C          63.6246   82.4288   11.9084 C.ar    1  UNL1       -0.0245
     27 C          64.4198   82.9541   10.7501 C.3     1  UNL1        0.0307
     28 C          63.5148   83.2337   13.1694 C.ar    1  UNL1       -0.0105
@<TRIPOS>BOND
     1    21    22    1
     2    22    23   ar
     3    23    24   ar
     4    24    25   ar
     5    25    26   ar
     6    26    27    1
     7    26    28   ar
     8    28    20    1
     9    20    18    1
    10    18     1    1
    11     1     2   ar
    12     2     3   ar
    13     3    12    1
    14    12    13   ar
    15    13    14   ar
    16    14    15   ar
    17    15    16   ar
    18    16    17   ar
    19     3     4   ar
    20     4     5   ar
    21     5     6   ar
    22     6     7    1
    23     6     8   ar
    24     8     9    1
    25     8    10   ar
    26    10    11   ar
    27    28    22   ar
    28    11     1   ar
    29    17    12   ar
    30    11     5   ar
    31    18    19    1
@<TRIPOS>MOLECULE
*****
 28 31 0 0 0
SMALL
GASTEIGER

@<TRIPOS>ATOM
      1 C          63.6713   87.1527   13.6439 C.ar    1  UNL1        0.0799
      2 C          64.3903   88.2264   14.4056 C.ar    1  UNL1        0.0204
      3 C          64.3780   89.6394   13.9024 C.ar    1  UNL1        0.0365
      4 C          63.6468   89.9786   12.6373 C.ar    1  UNL1        0.0826
      5 N          62.9279   88.9049   11.8756 N.ar    1  UNL1       -0.2918
      6 C          62.1278   88.9382   10.6072 C.ar    1  UNL1        0.0567
      7 C          61.8574   90.1510    9.7670 C.3     1  UNL1        0.0517
      8 C          61.6456   87.5458   10.3266 C.ar    1  UNL1        0.0730
      9 C          60.8084   87.1218    9.1564 C.3     1  UNL1        0.0534
     10 N          62.1477   86.6519   11.4216 N.ar    1  UNL1       -0.2299
     11 C          62.9401   87.4920   12.3789 C.ar    1  UNL1        0.1603
     12 C          65.0969   90.7132   14.6641 C.ar    1  UNL1        0.0828
     13 C          66.4991   91.0895   14.2870 C.ar    1  UNL1        0.0192
     14 C          67.2181   92.1632   15.0487 C.ar    1  UNL1        0.0031
     15 C          66.5348   92.8607   16.1875 C.ar    1  UNL1        0.0207
     16 C          65.1326   92.4844   16.5645 C.ar    1  UNL1        0.0988
     17 N          64.4137   91.4106   15.8028 N.ar    1  UNL1       -0.2438
     18 N          63.6836   85.7397   14.1472 N.pl3   1  UNL1       -0.3267
     19 H          63.3069   85.5290   15.0321 H       1  UNL1        0.1472
     20 C          64.2698   84.6477   13.3023 C.3     1  UNL1        0.1137
     21 C          64.4322   83.0813   10.7488 C.3     1  UNL1        0.0307
     22 C          63.6452   82.5462   11.9082 C.ar    1  UNL1       -0.0245
     23 C          62.9394   81.2277   11.7910 C.ar    1  UNL1       -0.0045
     24 C          62.1525   80.6926   12.9504 C.ar    1  UNL1       -0.0007
     25 C          62.0713   81.4757   14.2271 C.ar    1  UNL1       -0.0045
     26 C          62.7771   82.7941   14.3444 C.ar    1  UNL1       -0.0245
     27 C          62.6959   83.5772   15.6212 C.3     1  UNL1        0.0307
     28 C          63.5641   83.3293   13.1850 C.ar    1  UNL1       -0.0105
@<TRIPOS>BOND
     1    21    22    1
     2    22    23   ar
     3    23    24   ar
     4    24    25   ar
     5    25    26   ar
     6    26    27    1
     7    26    28   ar
     8    28    20    1
     9    20    18    1
    10    18     1    1
    11     1     2   ar
    12     2     3   ar
    13     3    12    1
    14    12    13   ar
    15    13    14   ar
    16    14    15   ar
    17    15    16   ar
    18    16    17   ar
    19     3     4   ar
    20     4     5   ar
    21     5     6   ar
    22     6     7    1
    23     6     8   ar
    24     8     9    1
    25     8    10   ar
    26    10    11   ar
    27    28    22   ar
    28    11     1   ar
    29    17    12   ar
    30    11     5   ar
    31    18    19    1
@<TRIPOS>MOLECULE
*****
 28 31 0 0 0
SMALL
GASTEIGER

@<TRIPOS>ATOM
      1 C          63.1350   86.8888   12.8626 C.ar    1  UNL1        0.0799
      2 C          62.2724   86.6595   11.6571 C.ar    1  UNL1        0.0204
      3 C          61.9526   87.7992   10.7359 C.ar    1  UNL1        0.0365
      4 C          62.4954   89.1684   11.0202 C.ar    1  UNL1        0.0826
      5 N          63.3580   89.3977   12.2257 N.ar    1  UNL1       -0.2918
      6 C          64.0309   90.6276   12.7591 C.ar    1  UNL1        0.0567
      7 C          63.9775   91.9968   12.1488 C.3     1  UNL1        0.0517
      8 C          64.7666   90.2480   14.0100 C.ar    1  UNL1        0.0730
      9 C          65.5781   91.1709   14.8701 C.3     1  UNL1        0.0534
     10 N          64.5484   88.7834   14.2496 N.ar    1  UNL1       -0.2299
     11 C          63.6778   88.2579   13.1469 C.ar    1  UNL1        0.1603
     12 C          61.0899   87.5699    9.5303 C.ar    1  UNL1        0.0828
     13 C          60.3383   88.7141    8.9174 C.ar    1  UNL1        0.0192
     14 C          59.4756   88.4849    7.7119 C.ar    1  UNL1        0.0031
     15 C          59.3646   87.1113    7.1193 C.ar    1  UNL1        0.0207
     16 C          60.1163   85.9671    7.7322 C.ar    1  UNL1        0.0988
     17 N          60.9790   86.1964    8.9378 N.ar    1  UNL1       -0.2438
     18 N          63.4548   85.7490   13.7838 N.pl3   1  UNL1       -0.3267
     19 H          63.1748   85.7849   14.7269 H       1  UNL1        0.1472
     20 C          64.2014   84.5546   13.2680 C.3     1  UNL1        0.1137
     21 C          64.4218   82.9314   10.7547 C.3     1  UNL1        0.0307
     22 C          63.6243   82.4133   11.9146 C.ar    1  UNL1       -0.0245
     23 C          62.9369   81.0835   11.8179 C.ar    1  UNL1       -0.0045
     24 C          62.1393   80.5654   12.9778 C.ar    1  UNL1       -0.0007
     25 C          62.0291   81.3770   14.2344 C.ar    1  UNL1       -0.0045
     26 C          62.7164   82.7067   14.3312 C.ar    1  UNL1       -0.0245
     27 C          62.6062   83.5183   15.5879 C.3     1  UNL1        0.0307
     28 C          63.5141   83.2249   13.1713 C.ar    1  UNL1       -0.0105
@<TRIPOS>BOND
     1    21    22    1
     2    22    23   ar
     3    23    24   ar
     4    24    25   ar
     5    25    26   ar
     6    26    27    1
     7    26    28   ar
     8    28    20    1
     9    20    18    1
    10    18     1    1
    11     1     2   ar
    12     2     3   ar
    13     3    12    1
    14    12    13   ar
    15    13    14   ar
    16    14    15   ar
    17    15    16   ar
    18    16    17   ar
    19     3     4   ar
    20     4     5   ar
    21     5     6   ar
    22     6     7    1
    23     6     8   ar
    24     8     9    1
    25     8    10   ar
    26    10    11   ar
    27    28    22   ar
    28    11     1   ar
    29    17    12   ar
    30    11     5   ar
    31    18    19    1
@<TRIPOS>MOLECULE
*****
 28 31 0 0 0
SMALL
GASTEIGER

@<TRIPOS>ATOM
      1 C          62.2180   87.3294   11.6993 C.ar    1  UNL1        0.0799
      2 C          63.1060   88.4691   12.1022 C.ar    1  UNL1        0.0204
      3 C          63.0946   89.7442   11.3123 C.ar    1  UNL1        0.0365
      4 C          62.1953   89.8796   10.1195 C.ar    1  UNL1        0.0826
      5 N          61.3073   88.7399    9.7166 N.ar    1  UNL1       -0.2918
      6 C          60.3223   88.5824    8.5963 C.ar    1  UNL1        0.0567
      7 C          59.9926   89.6159    7.5605 C.3     1  UNL1        0.0517
      8 C          59.7249   87.2099    8.6938 C.ar    1  UNL1        0.0730
      9 C          58.6929   86.6300    7.7725 C.3     1  UNL1        0.0534
     10 N          60.3407   86.5192    9.8743 N.ar    1  UNL1       -0.2299
     11 C          61.3186   87.4648   10.5065 C.ar    1  UNL1        0.1603
     12 C          63.9827   90.8841   11.7153 C.ar    1  UNL1        0.0828
     13 C          64.3944   91.9090   10.7004 C.ar    1  UNL1        0.0192
     14 C          65.2824   93.0488   11.1033 C.ar    1  UNL1        0.0031
     15 C          65.7587   93.1637   12.5211 C.ar    1  UNL1        0.0207
     16 C          65.3470   92.1387   13.5359 C.ar    1  UNL1        0.0988
     17 N          64.4589   90.9989   13.1330 N.ar    1  UNL1       -0.2438
     18 N          62.2294   86.0542   12.4891 N.pl3   1  UNL1       -0.3267
     19 H          61.4812   85.8426   13.0931 H       1  UNL1        0.1472
     20 C          63.3807   85.1015   12.3588 C.3     1  UNL1        0.1137
     21 C          63.8773   83.3819    9.9513 C.3     1  UNL1        0.0307
     22 C          63.3904   82.7626   11.2277 C.ar    1  UNL1       -0.0245
     23 C          63.1519   81.2835   11.3005 C.ar    1  UNL1       -0.0045
     24 C          62.6650   80.6642   12.5769 C.ar    1  UNL1       -0.0007
     25 C          62.4167   81.5240   13.7807 C.ar    1  UNL1       -0.0045
     26 C          62.6552   83.0031   13.7080 C.ar    1  UNL1       -0.0245
     27 C          62.4069   83.8629   14.9118 C.3     1  UNL1        0.0307
     28 C          63.1421   83.6224   12.4315 C.ar    1  UNL1       -0.0105
@<TRIPOS>BOND
     1    21    22    1
     2    22    23   ar
     3    23    24   ar
     4    24    25   ar
     5    25    26   ar
     6    26    27    1
     7    26    28   ar
     8    28    20    1
     9    20    18    1
    10    18     1    1
    11     1     2   ar
    12     2     3   ar
    13     3    12    1
    14    12    13   ar
    15    13    14   ar
    16    14    15   ar
    17    15    16   ar
    18    16    17   ar
    19     3     4   ar
    20     4     5   ar
    21     5     6   ar
    22     6     7    1
    23     6     8   ar
    24     8     9    1
    25     8    10   ar
    26    10    11   ar
    27    28    22   ar
    28    11     1   ar
    29    17    12   ar
    30    11     5   ar
    31    18    19    1
@<TRIPOS>MOLECULE
*****
 28 31 0 0 0
SMALL
GASTEIGER

@<TRIPOS>ATOM
      1 C          62.1916   87.2852   11.6620 C.ar    1  UNL1        0.0799
      2 C          63.0825   88.4150   12.0861 C.ar    1  UNL1        0.0204
      3 C          63.0768   89.7034   11.3182 C.ar    1  UNL1        0.0365
      4 C          62.1802   89.8621   10.1261 C.ar    1  UNL1        0.0826
      5 N          61.2894   88.7323    9.7020 N.ar    1  UNL1       -0.2918
      6 C          60.3061   88.5972    8.5773 C.ar    1  UNL1        0.0567
      7 C          59.9819   89.6494    7.5586 C.3     1  UNL1        0.0517
      8 C          59.7041   87.2252    8.6501 C.ar    1  UNL1        0.0730
      9 C          58.6721   86.6646    7.7170 C.3     1  UNL1        0.0534
     10 N          60.3153   86.5124    9.8199 N.ar    1  UNL1       -0.2299
     11 C          61.2951   87.4439   10.4700 C.ar    1  UNL1        0.1603
     12 C          63.9677   90.8333   11.7422 C.ar    1  UNL1        0.0828
     13 C          64.4505   90.9161   13.1600 C.ar    1  UNL1        0.0192
     14 C          65.3414   92.0459   13.5841 C.ar    1  UNL1        0.0031
     15 C          65.7495   93.0929   12.5904 C.ar    1  UNL1        0.0207
     16 C          65.2667   93.0101   11.1727 C.ar    1  UNL1        0.0988
     17 N          64.3758   91.8802   10.7486 N.ar    1  UNL1       -0.2438
     18 N          62.1973   85.9967   12.4300 N.pl3   1  UNL1       -0.3267
     19 H          61.4346   85.7645   13.0076 H       1  UNL1        0.1472
     20 C          63.3650   85.0618   12.3178 C.3     1  UNL1        0.1137
     21 C          62.4100   83.7757   14.8543 C.3     1  UNL1        0.0307
     22 C          62.6687   82.9358   13.6388 C.ar    1  UNL1       -0.0245
     23 C          62.4500   81.4527   13.6916 C.ar    1  UNL1       -0.0045
     24 C          62.7088   80.6128   12.4761 C.ar    1  UNL1       -0.0007
     25 C          63.1862   81.2558   11.2078 C.ar    1  UNL1       -0.0045
     26 C          63.4050   82.7388   11.1550 C.ar    1  UNL1       -0.0245
     27 C          63.8825   83.3818    9.8868 C.3     1  UNL1        0.0307
     28 C          63.1462   83.5788   12.3706 C.ar    1  UNL1       -0.0105
@<TRIPOS>BOND
     1    21    22    1
     2    22    23   ar
     3    23    24   ar
     4    24    25   ar
     5    25    26   ar
     6    26    27    1
     7    26    28   ar
     8    28    20    1
     9    20    18    1
    10    18     1    1
    11     1     2   ar
    12     2     3   ar
    13     3    12    1
    14    12    13   ar
    15    13    14   ar
    16    14    15   ar
    17    15    16   ar
    18    16    17   ar
    19     3     4   ar
    20     4     5   ar
    21     5     6   ar
    22     6     7    1
    23     6     8   ar
    24     8     9    1
    25     8    10   ar
    26    10    11   ar
    27    28    22   ar
    28    11     1   ar
    29    17    12   ar
    30    11     5   ar
    31    18    19    1
