@<TRIPOS>MOLECULE
*****
 37 41 0 0 0
SMALL
GASTEIGER

@<TRIPOS>ATOM
      1 C          63.8707   90.1103   15.5790 C.ar    1  UNL1        0.1469
      2 C          63.0905   89.6741   16.7836 C.ar    1  UNL1        0.0391
      3 C          62.8743   88.2136   17.0485 C.ar    1  UNL1        0.0219
      4 C          63.4382   87.1894   16.1088 C.ar    1  UNL1        0.0801
      5 C          64.2184   87.6256   14.9043 C.ar    1  UNL1        0.1030
      6 C          64.4346   89.0861   14.6394 C.ar    1  UNL1        0.0581
      7 N          64.6504   86.3961   14.1616 N.ar    1  UNL1       -0.2134
      8 C          64.1372   85.1999   14.9072 C.ar    1  UNL1        0.2018
      9 N          63.3880   85.6901   16.1106 N.ar    1  UNL1       -0.2975
     10 C          62.7081   84.8320   17.1359 C.3     1  UNL1        0.1332
     11 N          64.3379   83.7653   14.5176 N.pl3   1  UNL1       -0.2821
     12 H          64.7258   83.1299   15.1618 H       1  UNL1        0.1551
     13 C          63.9477   83.2989   13.1464 C.ar    1  UNL1        0.0782
     14 C          63.7164   84.2982   12.0518 C.ar    1  UNL1        0.0208
     15 C          63.3262   83.8318   10.6806 C.ar    1  UNL1        0.0728
     16 C          63.1673   82.3660   10.4040 C.ar    1  UNL1        0.0062
     17 C          63.3987   81.3668   11.4984 C.ar    1  UNL1        0.0309
     18 C          63.7889   81.8332   12.8696 C.ar    1  UNL1        0.1535
     19 F          64.0202   80.8340   13.9641 F       1  UNL1       -0.2029
     20 C          63.0948   84.8310    9.5861 C.3     1  UNL1        0.4186
     21 F          62.8634   85.8303    8.4916 F       1  UNL1       -0.1659
     22 F          63.5440   83.8226    8.5706 F       1  UNL1       -0.1659
     23 F          62.6456   85.8394   10.6018 F       1  UNL1       -0.1659
     24 O          64.0870   91.5709   15.3141 O.3     1  UNL1       -0.4533
     25 C          67.1254   92.7748   13.0627 C.ar    1  UNL1        0.1181
     26 C          65.7679   92.2782   13.4637 C.ar    1  UNL1        0.0597
     27 C          65.4444   92.0674   14.9132 C.ar    1  UNL1        0.1485
     28 C          66.4783   92.3532   15.9617 C.ar    1  UNL1        0.0582
     29 C          67.8358   92.8498   15.5607 C.ar    1  UNL1        0.1021
     30 N          68.1593   93.0605   14.1112 N.ar    1  UNL1       -0.2406
     31 C          67.3337   94.8579    8.2153 C.3     1  UNL1        0.0515
     32 C          67.5446   93.9431    9.3852 C.ar    1  UNL1        0.0545
     33 C          68.3488   92.6768    9.3805 C.ar    1  UNL1        0.1130
     34 N          68.2895   92.0850   10.7575 N.ar    1  UNL1       -0.2243
     35 C          67.4489   92.9855   11.6133 C.ar    1  UNL1        0.1583
     36 N          66.9885   94.1339   10.7652 N.ar    1  UNL1       -0.3394
     37 H          66.4210   94.8815   11.0621 H       1  UNL1        0.1672
@<TRIPOS>BOND
     1    31    32    1
     2    32    33   ar
     3    33    34   ar
     4    34    35   ar
     5    35    25    1
     6    25    26   ar
     7    26    27   ar
     8    27    24    1
     9    24     1    1
    10     1     2   ar
    11     2     3   ar
    12     3     4   ar
    13     4     5   ar
    14     5     6   ar
    15     5     7   ar
    16     7     8   ar
    17     8    11    1
    18    11    13    1
    19    13    14   ar
    20    14    15   ar
    21    15    20    1
    22    20    21    1
    23    20    22    1
    24    20    23    1
    25    15    16   ar
    26    16    17   ar
    27    17    18   ar
    28    18    19    1
    29     8     9   ar
    30     9    10    1
    31    27    28   ar
    32    28    29   ar
    33    29    30   ar
    34    35    36   ar
    35    36    32   ar
    36    30    25   ar
    37     6     1   ar
    38    18    13   ar
    39     9     4   ar
    40    11    12    1
    41    36    37    1
@<TRIPOS>MOLECULE
*****
 37 41 0 0 0
SMALL
GASTEIGER

@<TRIPOS>ATOM
      1 C          63.7142   89.8877   14.0831 C.ar    1  UNL1        0.1469
      2 C          62.9797   89.6065   12.8059 C.ar    1  UNL1        0.0391
      3 C          62.8797   88.2008   12.2922 C.ar    1  UNL1        0.0219
      4 C          63.5142   87.0763   13.0557 C.ar    1  UNL1        0.0801
      5 C          64.2486   87.3575   14.3330 C.ar    1  UNL1        0.1030
      6 C          64.3486   88.7632   14.8467 C.ar    1  UNL1        0.0581
      7 N          64.7690   86.0551   14.8648 N.ar    1  UNL1       -0.2134
      8 C          64.3561   84.9689   13.9162 C.ar    1  UNL1        0.2018
      9 N          63.5806   85.6001   12.7981 N.ar    1  UNL1       -0.2975
     10 C          62.9775   84.8812   11.6279 C.3     1  UNL1        0.1332
     11 N          64.6647   83.5081   14.0605 N.pl3   1  UNL1       -0.2821
     12 H          65.5456   83.2216   14.3939 H       1  UNL1        0.1551
     13 C          63.6311   82.4837   13.6968 C.ar    1  UNL1        0.0782
     14 C          63.7761   81.6876   12.4337 C.ar    1  UNL1        0.0208
     15 C          62.7424   80.6633   12.0699 C.ar    1  UNL1        0.0728
     16 C          61.5638   80.4351   12.9693 C.ar    1  UNL1        0.0062
     17 C          61.4188   81.2311   14.2323 C.ar    1  UNL1        0.0309
     18 C          62.4525   82.2555   14.5960 C.ar    1  UNL1        0.1535
     19 F          62.3075   83.0515   15.8590 F       1  UNL1       -0.2029
     20 C          62.8874   79.8672   10.8069 C.3     1  UNL1        0.4186
     21 F          63.0323   79.0711    9.5439 F       1  UNL1       -0.1659
     22 F          63.1924   81.1252   10.0491 F       1  UNL1       -0.1659
     23 F          62.5823   78.6092   11.5649 F       1  UNL1       -0.1659
     24 O          63.8142   91.2935   14.5969 O.3     1  UNL1       -0.4533
     25 C          66.7251   93.2752   12.7667 C.ar    1  UNL1        0.1181
     26 C          65.4702   92.4837   12.9871 C.ar    1  UNL1        0.0597
     27 C          65.0691   92.0850   14.3765 C.ar    1  UNL1        0.1485
     28 C          65.9230   92.4780   15.5455 C.ar    1  UNL1        0.0582
     29 C          67.1780   93.2696   15.3250 C.ar    1  UNL1        0.1021
     30 N          67.5790   93.6682   13.9357 N.ar    1  UNL1       -0.2406
     31 C          67.4463   96.0979    8.3630 C.3     1  UNL1        0.0515
     32 C          67.4576   94.9712    9.3532 C.ar    1  UNL1        0.0545
     33 C          68.0288   93.6030    9.1256 C.ar    1  UNL1        0.1130
     34 N          67.8239   92.8012   10.3766 N.ar    1  UNL1       -0.2243
     35 C          67.1261   93.6738   11.3774 C.ar    1  UNL1        0.1583
     36 N          66.8997   95.0149   10.7449 N.ar    1  UNL1       -0.3394
     37 H          66.4618   95.7881   11.1688 H       1  UNL1        0.1672
@<TRIPOS>BOND
     1    31    32    1
     2    32    33   ar
     3    33    34   ar
     4    34    35   ar
     5    35    25    1
     6    25    26   ar
     7    26    27   ar
     8    27    24    1
     9    24     1    1
    10     1     2   ar
    11     2     3   ar
    12     3     4   ar
    13     4     5   ar
    14     5     6   ar
    15     5     7   ar
    16     7     8   ar
    17     8    11    1
    18    11    13    1
    19    13    14   ar
    20    14    15   ar
    21    15    20    1
    22    20    21    1
    23    20    22    1
    24    20    23    1
    25    15    16   ar
    26    16    17   ar
    27    17    18   ar
    28    18    19    1
    29     8     9   ar
    30     9    10    1
    31    27    28   ar
    32    28    29   ar
    33    29    30   ar
    34    35    36   ar
    35    36    32   ar
    36    30    25   ar
    37     6     1   ar
    38    18    13   ar
    39     9     4   ar
    40    11    12    1
    41    36    37    1
@<TRIPOS>MOLECULE
*****
 37 41 0 0 0
SMALL
GASTEIGER

@<TRIPOS>ATOM
      1 C          63.7383   89.9970   15.4915 C.ar    1  UNL1        0.1469
      2 C          62.8428   89.5298   16.6005 C.ar    1  UNL1        0.0391
      3 C          62.7057   88.0637   16.8865 C.ar    1  UNL1        0.0219
      4 C          63.4641   87.0649   16.0636 C.ar    1  UNL1        0.0801
      5 C          64.3596   87.5321   14.9547 C.ar    1  UNL1        0.1030
      6 C          64.4967   88.9981   14.6686 C.ar    1  UNL1        0.0581
      7 N          64.9774   86.3230   14.3172 N.ar    1  UNL1       -0.2134
      8 C          64.4638   85.1085   15.0322 C.ar    1  UNL1        0.2018
      9 N          63.5285   85.5670   16.1116 N.ar    1  UNL1       -0.2975
     10 C          62.7876   84.6829   17.0705 C.3     1  UNL1        0.1332
     11 N          64.8225   83.6853   14.7223 N.pl3   1  UNL1       -0.2821
     12 H          65.6072   83.2713   15.1490 H       1  UNL1        0.1551
     13 C          63.9856   82.8930   13.7622 C.ar    1  UNL1        0.0782
     14 C          62.9117   81.9818   14.2785 C.ar    1  UNL1        0.0208
     15 C          62.0748   81.1895   13.3184 C.ar    1  UNL1        0.0728
     16 C          62.3118   81.3083   11.8419 C.ar    1  UNL1        0.0062
     17 C          63.3856   82.2195   11.3257 C.ar    1  UNL1        0.0309
     18 C          64.2225   83.0118   12.2858 C.ar    1  UNL1        0.1535
     19 F          65.2964   83.9230   11.7695 F       1  UNL1       -0.2029
     20 C          61.0009   80.2783   13.8346 C.3     1  UNL1        0.4186
     21 F          59.9270   79.3670   14.3509 F       1  UNL1       -0.1659
     22 F          60.2020   81.4691   14.2745 F       1  UNL1       -0.1659
     23 F          61.7999   79.0874   13.3947 F       1  UNL1       -0.1659
     24 O          63.8754   91.4631   15.2054 O.3     1  UNL1       -0.4533
     25 C          66.9532   92.8146   13.0957 C.ar    1  UNL1        0.1181
     26 C          65.6099   92.2387   13.4334 C.ar    1  UNL1        0.0597
     27 C          65.2187   92.0389   14.8677 C.ar    1  UNL1        0.1485
     28 C          66.1707   92.4149   15.9642 C.ar    1  UNL1        0.0582
     29 C          67.5140   92.9907   15.6264 C.ar    1  UNL1        0.1021
     30 N          67.9052   93.1905   14.1922 N.ar    1  UNL1       -0.2406
     31 C          67.3746   94.8513    8.2424 C.3     1  UNL1        0.0515
     32 C          67.5381   93.9506    9.4307 C.ar    1  UNL1        0.0545
     33 C          68.3547   92.6931    9.4782 C.ar    1  UNL1        0.1130
     34 N          68.2349   92.1146   10.8569 N.ar    1  UNL1       -0.2243
     35 C          67.3444   93.0144   11.6615 C.ar    1  UNL1        0.1583
     36 N          66.9137   94.1491   10.7800 N.ar    1  UNL1       -0.3394
     37 H          66.3247   94.8934   11.0413 H       1  UNL1        0.1672
@<TRIPOS>BOND
     1    31    32    1
     2    32    33   ar
     3    33    34   ar
     4    34    35   ar
     5    35    25    1
     6    25    26   ar
     7    26    27   ar
     8    27    24    1
     9    24     1    1
    10     1     2   ar
    11     2     3   ar
    12     3     4   ar
    13     4     5   ar
    14     5     6   ar
    15     5     7   ar
    16     7     8   ar
    17     8    11    1
    18    11    13    1
    19    13    14   ar
    20    14    15   ar
    21    15    20    1
    22    20    21    1
    23    20    22    1
    24    20    23    1
    25    15    16   ar
    26    16    17   ar
    27    17    18   ar
    28    18    19    1
    29     8     9   ar
    30     9    10    1
    31    27    28   ar
    32    28    29   ar
    33    29    30   ar
    34    35    36   ar
    35    36    32   ar
    36    30    25   ar
    37     6     1   ar
    38    18    13   ar
    39     9     4   ar
    40    11    12    1
    41    36    37    1
@<TRIPOS>MOLECULE
*****
 37 41 0 0 0
SMALL
GASTEIGER

@<TRIPOS>ATOM
      1 C          62.5366   89.8639   12.1931 C.ar    1  UNL1        0.1469
      2 C          62.9275   88.4284   12.0018 C.ar    1  UNL1        0.0391
      3 C          62.3648   87.6446   10.8533 C.ar    1  UNL1        0.0219
      4 C          61.4113   88.2963    9.8962 C.ar    1  UNL1        0.0801
      5 C          61.0204   89.7317   10.0876 C.ar    1  UNL1        0.1030
      6 C          61.5831   90.5155   11.2360 C.ar    1  UNL1        0.0581
      7 N          60.0670   90.1027    8.9905 N.ar    1  UNL1       -0.2134
      8 C          59.8687   88.8965    8.1211 C.ar    1  UNL1        0.2018
      9 N          60.6995   87.7801    8.6809 N.ar    1  UNL1       -0.2975
     10 C          60.8007   86.3913    8.1232 C.3     1  UNL1        0.1332
     11 N          58.9933   88.8202    6.9054 N.pl3   1  UNL1       -0.2821
     12 H          58.4472   88.0176    6.7417 H       1  UNL1        0.1551
     13 C          58.9499   89.9668    5.9393 C.ar    1  UNL1        0.0782
     14 C          60.2151   90.4567    5.2994 C.ar    1  UNL1        0.0208
     15 C          60.1717   91.6033    4.3333 C.ar    1  UNL1        0.0728
     16 C          58.8631   92.2601    4.0071 C.ar    1  UNL1        0.0062
     17 C          57.5980   91.7703    4.6470 C.ar    1  UNL1        0.0309
     18 C          57.6414   90.6236    5.6131 C.ar    1  UNL1        0.1535
     19 F          56.3763   90.1338    6.2530 F       1  UNL1       -0.2029
     20 C          61.4368   92.0932    3.6934 C.3     1  UNL1        0.4186
     21 F          62.7020   92.5831    3.0535 F       1  UNL1       -0.1659
     22 F          62.1865   90.9410    4.2937 F       1  UNL1       -0.1659
     23 F          60.6870   93.2453    3.0931 F       1  UNL1       -0.1659
     24 O          63.0993   90.6478   13.3416 O.3     1  UNL1       -0.4533
     25 C          66.2680   92.6137   11.9836 C.ar    1  UNL1        0.1181
     26 C          64.8824   92.0459   12.0704 C.ar    1  UNL1        0.0597
     27 C          64.4849   91.2156   13.2548 C.ar    1  UNL1        0.1485
     28 C          65.4732   90.9531   14.3523 C.ar    1  UNL1        0.0582
     29 C          66.8589   91.5210   14.2654 C.ar    1  UNL1        0.1021
     30 N          67.2562   92.3513   13.0811 N.ar    1  UNL1       -0.2406
     31 C          66.2659   96.3142    8.2171 C.3     1  UNL1        0.0515
     32 C          66.6644   95.1450    9.0680 C.ar    1  UNL1        0.0545
     33 C          67.8893   94.2986    8.8855 C.ar    1  UNL1        0.1130
     34 N          67.8899   93.2474    9.9555 N.ar    1  UNL1       -0.2243
     35 C          66.6654   93.4440   10.7993 C.ar    1  UNL1        0.1583
     36 N          65.9080   94.6168   10.2507 N.ar    1  UNL1       -0.3394
     37 H          65.0628   94.9767   10.6048 H       1  UNL1        0.1672
@<TRIPOS>BOND
     1    31    32    1
     2    32    33   ar
     3    33    34   ar
     4    34    35   ar
     5    35    25    1
     6    25    26   ar
     7    26    27   ar
     8    27    24    1
     9    24     1    1
    10     1     2   ar
    11     2     3   ar
    12     3     4   ar
    13     4     5   ar
    14     5     6   ar
    15     5     7   ar
    16     7     8   ar
    17     8    11    1
    18    11    13    1
    19    13    14   ar
    20    14    15   ar
    21    15    20    1
    22    20    21    1
    23    20    22    1
    24    20    23    1
    25    15    16   ar
    26    16    17   ar
    27    17    18   ar
    28    18    19    1
    29     8     9   ar
    30     9    10    1
    31    27    28   ar
    32    28    29   ar
    33    29    30   ar
    34    35    36   ar
    35    36    32   ar
    36    30    25   ar
    37     6     1   ar
    38    18    13   ar
    39     9     4   ar
    40    11    12    1
    41    36    37    1
@<TRIPOS>MOLECULE
*****
 37 41 0 0 0
SMALL
GASTEIGER

@<TRIPOS>ATOM
      1 C          63.1607   90.1336   13.0340 C.ar    1  UNL1        0.1469
      2 C          62.3574   90.5279   11.8302 C.ar    1  UNL1        0.0391
      3 C          61.8896   89.4797   10.8645 C.ar    1  UNL1        0.0219
      4 C          62.2252   88.0372   11.1027 C.ar    1  UNL1        0.0801
      5 C          63.0285   87.6430   12.3065 C.ar    1  UNL1        0.1030
      6 C          63.4962   88.6911   13.2721 C.ar    1  UNL1        0.0581
      7 N          63.2042   86.1536   12.2790 N.ar    1  UNL1       -0.2134
      8 C          62.5094   85.6273   11.0582 C.ar    1  UNL1        0.2018
      9 N          61.9044   86.7915   10.3311 N.ar    1  UNL1       -0.2975
     10 C          61.1168   86.7221    9.0564 C.3     1  UNL1        0.1332
     11 N          62.4332   84.1893   10.6381 N.pl3   1  UNL1       -0.2821
     12 H          62.1123   83.9560    9.7371 H       1  UNL1        0.1551
     13 C          62.8457   83.1067   11.5910 C.ar    1  UNL1        0.0782
     14 C          61.8047   82.2520   12.2513 C.ar    1  UNL1        0.0208
     15 C          62.2173   81.1695   13.2041 C.ar    1  UNL1        0.0728
     16 C          63.6708   80.9417   13.4968 C.ar    1  UNL1        0.0062
     17 C          64.7117   81.7964   12.8365 C.ar    1  UNL1        0.0309
     18 C          64.2991   82.8790   11.8836 C.ar    1  UNL1        0.1535
     19 F          65.3400   83.7337   11.2234 F       1  UNL1       -0.2029
     20 C          61.1764   80.3147   13.8644 C.3     1  UNL1        0.4186
     21 F          60.1355   79.4600   14.5247 F       1  UNL1       -0.1659
     22 F          61.9005   79.0821   13.4102 F       1  UNL1       -0.1659
     23 F          60.4523   81.5474   14.3186 F       1  UNL1       -0.1659
     24 O          63.6284   91.1818   13.9997 O.3     1  UNL1       -0.4533
     25 C          66.7455   93.0814   12.4422 C.ar    1  UNL1        0.1181
     26 C          65.3767   92.4852   12.5873 C.ar    1  UNL1        0.0597
     27 C          64.9971   91.7780   13.8546 C.ar    1  UNL1        0.1485
     28 C          65.9864   91.6670   14.9767 C.ar    1  UNL1        0.0582
     29 C          67.3552   92.2632   14.8316 C.ar    1  UNL1        0.1021
     30 N          67.7347   92.9704   13.5643 N.ar    1  UNL1       -0.2406
     31 C          67.2855   96.8051    8.7378 C.3     1  UNL1        0.0515
     32 C          67.3732   95.5001    9.4723 C.ar    1  UNL1        0.0545
     33 C          68.0447   94.2533    8.9776 C.ar    1  UNL1        0.1130
     34 N          67.8913   93.1955   10.0300 N.ar    1  UNL1       -0.2243
     35 C          67.1250   93.7885   11.1750 C.ar    1  UNL1        0.1583
     36 N          66.8048   95.2128   10.8303 N.ar    1  UNL1       -0.3394
     37 H          66.3087   95.8476   11.3961 H       1  UNL1        0.1672
@<TRIPOS>BOND
     1    31    32    1
     2    32    33   ar
     3    33    34   ar
     4    34    35   ar
     5    35    25    1
     6    25    26   ar
     7    26    27   ar
     8    27    24    1
     9    24     1    1
    10     1     2   ar
    11     2     3   ar
    12     3     4   ar
    13     4     5   ar
    14     5     6   ar
    15     5     7   ar
    16     7     8   ar
    17     8    11    1
    18    11    13    1
    19    13    14   ar
    20    14    15   ar
    21    15    20    1
    22    20    21    1
    23    20    22    1
    24    20    23    1
    25    15    16   ar
    26    16    17   ar
    27    17    18   ar
    28    18    19    1
    29     8     9   ar
    30     9    10    1
    31    27    28   ar
    32    28    29   ar
    33    29    30   ar
    34    35    36   ar
    35    36    32   ar
    36    30    25   ar
    37     6     1   ar
    38    18    13   ar
    39     9     4   ar
    40    11    12    1
    41    36    37    1
@<TRIPOS>MOLECULE
*****
 37 41 0 0 0
SMALL
GASTEIGER

@<TRIPOS>ATOM
      1 C          59.7989   88.6006    7.9494 C.ar    1  UNL1        0.1469
      2 C          60.4401   87.2987    8.3287 C.ar    1  UNL1        0.0391
      3 C          61.3272   87.2233    9.5359 C.ar    1  UNL1        0.0219
      4 C          61.5730   88.4497   10.3638 C.ar    1  UNL1        0.0801
      5 C          60.9318   89.7516    9.9845 C.ar    1  UNL1        0.1030
      6 C          60.0448   89.8270    8.7773 C.ar    1  UNL1        0.0581
      7 N          61.3558   90.7858   10.9847 N.ar    1  UNL1       -0.2134
      8 C          62.2590   90.1232   11.9823 C.ar    1  UNL1        0.2018
      9 N          62.3933   88.6793   11.5986 N.ar    1  UNL1       -0.2975
     10 C          63.2052   87.6465   12.3224 C.3     1  UNL1        0.1332
     11 N          62.9131   90.7877   13.1573 N.pl3   1  UNL1       -0.2821
     12 H          62.4263   90.8725   14.0088 H       1  UNL1        0.1551
     13 C          64.3090   91.3230   13.0349 C.ar    1  UNL1        0.0782
     14 C          64.7548   91.9701   11.7571 C.ar    1  UNL1        0.0208
     15 C          66.1507   92.5054   11.6348 C.ar    1  UNL1        0.0728
     16 C          67.1007   92.3937   12.7902 C.ar    1  UNL1        0.0062
     17 C          66.6549   91.7467   14.0679 C.ar    1  UNL1        0.0309
     18 C          65.2591   91.2114   14.1903 C.ar    1  UNL1        0.1535
     19 F          64.8133   90.5644   15.4680 F       1  UNL1       -0.2029
     20 C          66.5965   93.1524   10.3570 C.3     1  UNL1        0.4186
     21 F          67.0423   93.7994    9.0792 F       1  UNL1       -0.1659
     22 F          65.5836   94.2409   10.5548 F       1  UNL1       -0.1659
     23 F          67.6094   92.0638   10.1593 F       1  UNL1       -0.1659
     24 O          58.9119   88.6761    6.7421 O.3     1  UNL1       -0.4533
     25 C          60.1527   91.5406    4.2916 C.ar    1  UNL1        0.1181
     26 C          60.1530   90.3078    5.1461 C.ar    1  UNL1        0.0597
     27 C          58.9115   89.9088    5.8875 C.ar    1  UNL1        0.1485
     28 C          57.6698   90.7426    5.7743 C.ar    1  UNL1        0.0582
     29 C          57.6695   91.9755    4.9197 C.ar    1  UNL1        0.1021
     30 N          58.9109   92.3744    4.1784 N.ar    1  UNL1       -0.2406
     31 C          63.4727   94.0466    1.0393 C.3     1  UNL1        0.0515
     32 C          62.9202   93.0914    2.0553 C.ar    1  UNL1        0.0545
     33 C          63.6889   92.0155    2.7635 C.ar    1  UNL1        0.1130
     34 N          62.7457   91.3036    3.6874 N.ar    1  UNL1       -0.2243
     35 C          61.3941   91.9395    3.5503 C.ar    1  UNL1        0.1583
     36 N          61.5020   93.0445    2.5416 N.ar    1  UNL1       -0.3394
     37 H          60.7704   93.6352    2.2499 H       1  UNL1        0.1672
@<TRIPOS>BOND
     1    31    32    1
     2    32    33   ar
     3    33    34   ar
     4    34    35   ar
     5    35    25    1
     6    25    26   ar
     7    26    27   ar
     8    27    24    1
     9    24     1    1
    10     1     2   ar
    11     2     3   ar
    12     3     4   ar
    13     4     5   ar
    14     5     6   ar
    15     5     7   ar
    16     7     8   ar
    17     8    11    1
    18    11    13    1
    19    13    14   ar
    20    14    15   ar
    21    15    20    1
    22    20    21    1
    23    20    22    1
    24    20    23    1
    25    15    16   ar
    26    16    17   ar
    27    17    18   ar
    28    18    19    1
    29     8     9   ar
    30     9    10    1
    31    27    28   ar
    32    28    29   ar
    33    29    30   ar
    34    35    36   ar
    35    36    32   ar
    36    30    25   ar
    37     6     1   ar
    38    18    13   ar
    39     9     4   ar
    40    11    12    1
    41    36    37    1
@<TRIPOS>MOLECULE
*****
 37 41 0 0 0
SMALL
GASTEIGER

@<TRIPOS>ATOM
      1 C          63.7705   89.9417   15.6563 C.ar    1  UNL1        0.1469
      2 C          63.5070   89.0155   16.8064 C.ar    1  UNL1        0.0391
      3 C          63.2705   87.5558   16.5547 C.ar    1  UNL1        0.0219
      4 C          63.2976   87.0223   15.1531 C.ar    1  UNL1        0.0801
      5 C          63.5610   87.9486   14.0030 C.ar    1  UNL1        0.1030
      6 C          63.7975   89.4083   14.2547 C.ar    1  UNL1        0.0581
      7 N          63.5275   87.1403   12.7398 N.ar    1  UNL1       -0.2134
      8 C          63.2432   85.7146   13.1092 C.ar    1  UNL1        0.2018
      9 N          63.1011   85.6416   14.6007 N.ar    1  UNL1       -0.2975
     10 C          62.8132   84.4051   15.3995 C.3     1  UNL1        0.1332
     11 N          63.1223   84.5638   12.1546 N.pl3   1  UNL1       -0.2821
     12 H          63.2452   83.6417   12.4770 H       1  UNL1        0.1551
     13 C          62.8141   84.8179   10.7088 C.ar    1  UNL1        0.0782
     14 C          61.7369   85.7912   10.3314 C.ar    1  UNL1        0.0208
     15 C          61.4287   86.0454    8.8856 C.ar    1  UNL1        0.0728
     16 C          62.1977   85.3262    7.8171 C.ar    1  UNL1        0.0062
     17 C          63.2748   84.3529    8.1945 C.ar    1  UNL1        0.0309
     18 C          63.5830   84.0988    9.6404 C.ar    1  UNL1        0.1535
     19 F          64.6601   83.1255   10.0178 F       1  UNL1       -0.2029
     20 C          60.3515   87.0186    8.5081 C.3     1  UNL1        0.4186
     21 F          59.2743   87.9919    8.1307 F       1  UNL1       -0.1659
     22 F          61.1267   88.1276    9.1556 F       1  UNL1       -0.1659
     23 F          59.5763   85.9096    7.8607 F       1  UNL1       -0.1659
     24 O          64.0069   91.4015   15.9079 O.3     1  UNL1       -0.4533
     25 C          66.7675   92.8642   13.4605 C.ar    1  UNL1        0.1181
     26 C          65.5070   92.2136   13.9482 C.ar    1  UNL1        0.0597
     27 C          65.2674   92.0521   15.4202 C.ar    1  UNL1        0.1485
     28 C          66.2883   92.5411   16.4043 C.ar    1  UNL1        0.0582
     29 C          67.5488   93.1917   15.9165 C.ar    1  UNL1        0.1021
     30 N          67.7884   93.3532   14.4446 N.ar    1  UNL1       -0.2406
     31 C          68.7147   92.2440    8.5918 C.3     1  UNL1        0.0515
     32 C          67.9020   92.7406    9.7507 C.ar    1  UNL1        0.0545
     33 C          66.8492   93.8077    9.6964 C.ar    1  UNL1        0.1130
     34 N          66.2961   93.9839   11.0795 N.ar    1  UNL1       -0.2243
     35 C          67.0070   93.0257   11.9886 C.ar    1  UNL1        0.1583
     36 N          67.9995   92.2573   11.1674 N.ar    1  UNL1       -0.3394
     37 H          68.6081   91.5584   11.4998 H       1  UNL1        0.1672
@<TRIPOS>BOND
     1    31    32    1
     2    32    33   ar
     3    33    34   ar
     4    34    35   ar
     5    35    25    1
     6    25    26   ar
     7    26    27   ar
     8    27    24    1
     9    24     1    1
    10     1     2   ar
    11     2     3   ar
    12     3     4   ar
    13     4     5   ar
    14     5     6   ar
    15     5     7   ar
    16     7     8   ar
    17     8    11    1
    18    11    13    1
    19    13    14   ar
    20    14    15   ar
    21    15    20    1
    22    20    21    1
    23    20    22    1
    24    20    23    1
    25    15    16   ar
    26    16    17   ar
    27    17    18   ar
    28    18    19    1
    29     8     9   ar
    30     9    10    1
    31    27    28   ar
    32    28    29   ar
    33    29    30   ar
    34    35    36   ar
    35    36    32   ar
    36    30    25   ar
    37     6     1   ar
    38    18    13   ar
    39     9     4   ar
    40    11    12    1
    41    36    37    1
@<TRIPOS>MOLECULE
*****
 37 41 0 0 0
SMALL
GASTEIGER

@<TRIPOS>ATOM
      1 C          59.8667   88.6010    8.0344 C.ar    1  UNL1        0.1469
      2 C          60.5305   87.3163    8.4329 C.ar    1  UNL1        0.0391
      3 C          61.4211   87.2749    9.6391 C.ar    1  UNL1        0.0219
      4 C          61.6480   88.5183   10.4469 C.ar    1  UNL1        0.0801
      5 C          60.9842   89.8030   10.0485 C.ar    1  UNL1        0.1030
      6 C          60.0936   89.8444    8.8422 C.ar    1  UNL1        0.0581
      7 N          61.3927   90.8600   11.0313 N.ar    1  UNL1       -0.2134
      8 C          62.3089   90.2285   12.0371 C.ar    1  UNL1        0.2018
      9 N          62.4667   88.7813   11.6760 N.ar    1  UNL1       -0.2975
     10 C          63.2974   87.7738   12.4143 C.3     1  UNL1        0.1332
     11 N          62.9541   90.9226   13.2000 N.pl3   1  UNL1       -0.2821
     12 H          62.4613   91.0274   14.0458 H       1  UNL1        0.1551
     13 C          64.3500   91.4569   13.0741 C.ar    1  UNL1        0.0782
     14 C          65.2449   91.5079   14.2769 C.ar    1  UNL1        0.0208
     15 C          66.6409   92.0422   14.1509 C.ar    1  UNL1        0.0728
     16 C          67.1419   92.5255   12.8222 C.ar    1  UNL1        0.0062
     17 C          66.2471   92.4744   11.6195 C.ar    1  UNL1        0.0309
     18 C          64.8511   91.9401   11.7454 C.ar    1  UNL1        0.1535
     19 F          63.9562   91.8890   10.5427 F       1  UNL1       -0.2029
     20 C          67.5357   92.0933   15.3536 C.3     1  UNL1        0.4186
     21 F          68.4306   92.1444   16.5564 F       1  UNL1       -0.1659
     22 F          68.7384   91.9914   14.4631 F       1  UNL1       -0.1659
     23 F          66.3330   92.1952   16.2442 F       1  UNL1       -0.1659
     24 O          58.9761   88.6424    6.8281 O.3     1  UNL1       -0.4533
     25 C          60.1375   91.5018    4.3331 C.ar    1  UNL1        0.1181
     26 C          60.1694   90.2782    5.2002 C.ar    1  UNL1        0.0597
     27 C          58.9442   89.8660    5.9611 C.ar    1  UNL1        0.1485
     28 C          57.6871   90.6774    5.8548 C.ar    1  UNL1        0.0582
     29 C          57.6552   91.9010    4.9877 C.ar    1  UNL1        0.1021
     30 N          58.8804   92.3131    4.2269 N.ar    1  UNL1       -0.2406
     31 C          63.3619   93.9926    0.9746 C.3     1  UNL1        0.0515
     32 C          62.8448   93.0588    2.0286 C.ar    1  UNL1        0.0545
     33 C          63.6516   92.0375    2.7744 C.ar    1  UNL1        0.1130
     34 N          62.7356   91.3300    3.7284 N.ar    1  UNL1       -0.2243
     35 C          61.3628   91.9139    3.5723 C.ar    1  UNL1        0.1583
     36 N          61.4303   92.9824    2.5217 N.ar    1  UNL1       -0.3394
     37 H          60.6782   93.5363    2.2105 H       1  UNL1        0.1672
@<TRIPOS>BOND
     1    31    32    1
     2    32    33   ar
     3    33    34   ar
     4    34    35   ar
     5    35    25    1
     6    25    26   ar
     7    26    27   ar
     8    27    24    1
     9    24     1    1
    10     1     2   ar
    11     2     3   ar
    12     3     4   ar
    13     4     5   ar
    14     5     6   ar
    15     5     7   ar
    16     7     8   ar
    17     8    11    1
    18    11    13    1
    19    13    14   ar
    20    14    15   ar
    21    15    20    1
    22    20    21    1
    23    20    22    1
    24    20    23    1
    25    15    16   ar
    26    16    17   ar
    27    17    18   ar
    28    18    19    1
    29     8     9   ar
    30     9    10    1
    31    27    28   ar
    32    28    29   ar
    33    29    30   ar
    34    35    36   ar
    35    36    32   ar
    36    30    25   ar
    37     6     1   ar
    38    18    13   ar
    39     9     4   ar
    40    11    12    1
    41    36    37    1
@<TRIPOS>MOLECULE
*****
 37 41 0 0 0
SMALL
GASTEIGER

@<TRIPOS>ATOM
      1 C          63.5767   85.9923   15.8031 C.ar    1  UNL1        0.1469
      2 C          63.0594   86.6877   17.0273 C.ar    1  UNL1        0.0391
      3 C          63.1016   88.1846   17.1137 C.ar    1  UNL1        0.0219
      4 C          63.6613   88.9860   15.9760 C.ar    1  UNL1        0.0801
      5 C          64.1786   88.2906   14.7518 C.ar    1  UNL1        0.1030
      6 C          64.1363   86.7937   14.6654 C.ar    1  UNL1        0.0581
      7 N          64.6690   89.3377   13.7962 N.ar    1  UNL1       -0.2134
      8 C          64.4547   90.6804   14.4299 C.ar    1  UNL1        0.2018
      9 N          63.8319   90.4630   15.7770 N.ar    1  UNL1       -0.2975
     10 C          63.4472   91.5345   16.7538 C.3     1  UNL1        0.1332
     11 N          64.8022   92.0073   13.8229 N.pl3   1  UNL1       -0.2821
     12 H          64.2250   92.7885   13.9836 H       1  UNL1        0.1551
     13 C          66.0292   92.1441   12.9709 C.ar    1  UNL1        0.0782
     14 C          65.9385   92.8004   11.6251 C.ar    1  UNL1        0.0208
     15 C          67.1655   92.9371   10.7732 C.ar    1  UNL1        0.0728
     16 C          68.4832   92.4176   11.2671 C.ar    1  UNL1        0.0062
     17 C          68.5738   91.7613   12.6128 C.ar    1  UNL1        0.0309
     18 C          67.3468   91.6245   13.4647 C.ar    1  UNL1        0.1535
     19 F          67.4374   90.9683   14.8105 F       1  UNL1       -0.2029
     20 C          67.0749   93.5934    9.4275 C.3     1  UNL1        0.4186
     21 F          66.9843   94.2498    8.0817 F       1  UNL1       -0.1659
     22 F          68.0221   92.5744    8.8668 F       1  UNL1       -0.1659
     23 F          66.1276   94.6124    9.9883 F       1  UNL1       -0.1659
     24 O          63.5345   84.4953   15.7167 O.3     1  UNL1       -0.4533
     25 C          62.8421   83.9666   11.8448 C.ar    1  UNL1        0.1181
     26 C          63.0058   84.6366   13.1768 C.ar    1  UNL1        0.0597
     27 C          63.3708   83.8253   14.3846 C.ar    1  UNL1        0.1485
     28 C          63.5721   82.3441   14.2603 C.ar    1  UNL1        0.0582
     29 C          63.4085   81.6742   12.9282 C.ar    1  UNL1        0.1021
     30 N          63.0435   82.4854   11.7205 N.ar    1  UNL1       -0.2406
     31 C          60.3831   87.3545    8.6268 C.3     1  UNL1        0.0515
     32 C          61.3468   86.3351    9.1579 C.ar    1  UNL1        0.0545
     33 C          62.4840   85.7174    8.3993 C.ar    1  UNL1        0.1130
     34 N          63.1825   84.7550    9.3135 N.ar    1  UNL1       -0.2243
     35 C          62.4771   84.7779   10.6371 C.ar    1  UNL1        0.1583
     36 N          61.3426   85.7544   10.5410 N.ar    1  UNL1       -0.3394
     37 H          60.7069   85.9754   11.2594 H       1  UNL1        0.1672
@<TRIPOS>BOND
     1    31    32    1
     2    32    33   ar
     3    33    34   ar
     4    34    35   ar
     5    35    25    1
     6    25    26   ar
     7    26    27   ar
     8    27    24    1
     9    24     1    1
    10     1     2   ar
    11     2     3   ar
    12     3     4   ar
    13     4     5   ar
    14     5     6   ar
    15     5     7   ar
    16     7     8   ar
    17     8    11    1
    18    11    13    1
    19    13    14   ar
    20    14    15   ar
    21    15    20    1
    22    20    21    1
    23    20    22    1
    24    20    23    1
    25    15    16   ar
    26    16    17   ar
    27    17    18   ar
    28    18    19    1
    29     8     9   ar
    30     9    10    1
    31    27    28   ar
    32    28    29   ar
    33    29    30   ar
    34    35    36   ar
    35    36    32   ar
    36    30    25   ar
    37     6     1   ar
    38    18    13   ar
    39     9     4   ar
    40    11    12    1
    41    36    37    1
