@<TRIPOS>MOLECULE
*****
 55 61 0 0 0
SMALL
GASTEIGER

@<TRIPOS>ATOM
      1 C          60.2297   92.2846    2.9855 C.2     1  UNL1        0.1699
      2 N          59.4328   91.6695    4.0976 N.2     1  UNL1       -0.0640
      3 C          60.1124   90.8068    5.1191 C.cat   1  UNL1        0.4643
      4 N          61.5891   90.5590    5.0287 N.2     1  UNL1        0.0296
      5 C          62.3860   91.1740    3.9167 C.2     1  UNL1        0.3686
      6 N          63.8444   91.1090    3.5721 N.2     1  UNL1       -0.0340
      7 C          64.0661   91.9316    2.3375 C.2     1  UNL1        0.2321
      8 C          62.7447   92.5050    1.9191 C.2     1  UNL1        0.0440
      9 C          61.7063   92.0368    2.8951 C.3     1  UNL1        0.1961
     10 C          58.1813   93.8674    0.0936 C.ar    1  UNL1        0.1559
     11 C          58.6281   92.6714    0.8807 C.ar    1  UNL1        0.0469
     12 C          59.5500   93.1473    1.9640 C.ar    1  UNL1        0.1105
     13 N          59.6729   94.6377    1.8463 N.ar    1  UNL1       -0.2461
     14 C          60.4970   95.5268    2.7296 C.3     1  UNL1        0.1538
     15 N          58.8269   95.0827    0.6904 N.ar    1  UNL1       -0.1645
     16 N          57.4070   94.8676   -2.1758 N.am    1  UNL1       -0.2796
     17 C          57.2518   93.8511   -1.0837 C.2     1  UNL1        0.2690
     18 O          56.1673   92.8185   -1.1688 O.2     1  UNL1       -0.2681
     19 H          58.1188   95.5454   -2.1200 H       1  UNL1        0.1552
     20 C          55.3561   95.8438   -3.4370 C.ar    1  UNL1       -0.0090
     21 C          54.4267   95.8275   -4.6144 C.ar    1  UNL1       -0.0031
     22 C          54.6189   94.8187   -5.7076 C.ar    1  UNL1       -0.0006
     23 C          55.7404   93.8261   -5.6237 C.ar    1  UNL1       -0.0031
     24 C          56.6698   93.8424   -4.4465 C.ar    1  UNL1       -0.0090
     25 C          56.4776   94.8513   -3.3531 C.ar    1  UNL1        0.0425
     26 C          54.6488   96.4175   -1.0038 C.3     1  UNL1        0.0051
     27 C          55.1639   96.8526   -2.3437 C.3     1  UNL1        0.0276
     28 C          57.7914   92.8499   -4.3625 C.3     1  UNL1        0.0276
     29 C          57.4909   91.3937   -4.1647 C.3     1  UNL1        0.0051
     30 N          59.3154   90.1918    6.2312 N.pl3   1  UNL1       -0.1896
     31 H          58.3890   90.4833    6.3925 H       1  UNL1        0.2524
     32 C          59.9300   89.1326    7.0975 C.ar    1  UNL1        0.1435
     33 C          60.2247   87.7763    6.5288 C.ar    1  UNL1        0.0356
     34 C          60.8393   86.7171    7.3952 C.ar    1  UNL1        0.0174
     35 C          61.1591   87.0143    8.8302 C.ar    1  UNL1        0.0511
     36 C          60.8644   88.3707    9.3989 C.ar    1  UNL1        0.0541
     37 C          60.2499   89.4298    8.5326 C.ar    1  UNL1        0.1684
     38 N          61.7737   85.9552    9.6966 N.pl3   1  UNL1       -0.3072
     39 C          62.7887   85.0120    9.1220 C.3     1  UNL1        0.0932
     40 C          63.4034   83.9529    9.9883 C.3     1  UNL1        0.0497
     41 C          63.0029   83.8370   11.4292 C.3     1  UNL1        0.1063
     42 O          63.9990   82.7186   11.3449 O.3     1  UNL1       -0.3853
     43 C          61.9879   84.7802   12.0038 C.3     1  UNL1        0.0497
     44 C          61.3733   85.8393   11.1375 C.3     1  UNL1        0.0932
     45 H          64.3545   82.6696   10.4437 H       1  UNL1        0.2103
     46 C          62.9485   83.3327   12.8409 C.3     1  UNL1        0.0994
     47 N          63.0051   84.3003   13.9856 N.3     1  UNL1       -0.2683
     48 C          62.1117   84.1081   15.1751 C.3     1  UNL1        0.0897
     49 C          62.1683   85.0757   16.3198 C.3     1  UNL1        0.0897
     50 N          63.1183   86.2356   16.2752 N.3     1  UNL1       -0.2691
     51 C          63.1749   87.2033   17.4198 C.3     1  UNL1        0.0897
     52 C          64.0118   86.4280   15.0857 C.3     1  UNL1        0.0897
     53 C          63.9551   85.4603   13.9409 C.3     1  UNL1        0.0897
     54 O          59.9552   90.7862    9.1013 O.3     1  UNL1       -0.4687
     55 C          59.7031   90.9445   10.5714 C.3     1  UNL1        0.2526
@<TRIPOS>BOND
     1    26    27    1
     2    27    20    1
     3    20    21   ar
     4    21    22   ar
     5    22    23   ar
     6    23    24   ar
     7    24    28    1
     8    28    29    1
     9    24    25   ar
    10    25    16    1
    11    16    17   am
    12    17    18    2
    13    17    10    1
    14    10    11   ar
    15    11    12   ar
    16    12     1    1
    17     1     2    2
    18     2     3    1
    19     3    30    1
    20    30    32    1
    21    32    33   ar
    22    33    34   ar
    23    34    35   ar
    24    35    38    1
    25    38    39    1
    26    39    40    1
    27    40    41    1
    28    41    42    1
    29    41    46    1
    30    46    47    1
    31    47    48    1
    32    48    49    1
    33    49    50    1
    34    50    51    1
    35    50    52    1
    36    52    53    1
    37    41    43    1
    38    43    44    1
    39    35    36   ar
    40    36    37   ar
    41    37    54    1
    42    54    55    1
    43     3     4    2
    44     4     5    1
    45     5     6    2
    46     6     7    1
    47     7     8    2
    48     8     9    1
    49    12    13   ar
    50    13    14    1
    51    13    15   ar
    52    25    20   ar
    53    15    10   ar
    54     9     1    1
    55    37    32   ar
    56     9     5    1
    57    44    38    1
    58    53    47    1
    59    16    19    1
    60    30    31    1
    61    42    45    1
@<TRIPOS>MOLECULE
*****
 55 61 0 0 0
SMALL
GASTEIGER

@<TRIPOS>ATOM
      1 C          60.5613   92.3285    3.6275 C.2     1  UNL1        0.1699
      2 N          59.8971   93.5651    3.0987 N.2     1  UNL1       -0.0640
      3 C          60.6152   94.4394    2.1140 C.cat   1  UNL1        0.4643
      4 N          61.9976   94.0773    1.6581 N.2     1  UNL1        0.0296
      5 C          62.6618   92.8407    2.1870 C.2     1  UNL1        0.3686
      6 N          64.0076   92.2331    1.9227 N.2     1  UNL1       -0.0340
      7 C          64.1211   90.9832    2.7442 C.2     1  UNL1        0.2321
      8 C          62.8455   90.8183    3.5161 C.2     1  UNL1        0.0440
      9 C          61.9436   91.9663    3.1717 C.3     1  UNL1        0.1961
     10 C          59.3962   89.8780    6.4029 C.ar    1  UNL1        0.1559
     11 C          60.4861   90.5669    5.6366 C.ar    1  UNL1        0.0469
     12 C          59.8431   91.4541    4.6123 C.ar    1  UNL1        0.1105
     13 N          58.3556   91.3135    4.7455 N.ar    1  UNL1       -0.2461
     14 C          57.3253   92.0225    3.9174 C.3     1  UNL1        0.1538
     15 N          58.0795   90.3393    5.8522 N.ar    1  UNL1       -0.1645
     16 N          60.9579   88.6718    8.0930 N.am    1  UNL1       -0.2796
     17 C          59.5891   88.8994    7.5232 C.2     1  UNL1        0.2690
     18 O          58.4132   88.1483    8.0738 O.2     1  UNL1       -0.2681
     19 H          61.7297   89.1648    7.7316 H       1  UNL1        0.1552
     20 C          61.0844   88.1606   10.6371 C.ar    1  UNL1       -0.0090
     21 C          61.2773   87.1819   11.7574 C.ar    1  UNL1       -0.0031
     22 C          61.5366   85.7360   11.4539 C.ar    1  UNL1       -0.0006
     23 C          61.6030   85.2687   10.0301 C.ar    1  UNL1       -0.0031
     24 C          61.4101   86.2473    8.9098 C.ar    1  UNL1       -0.0090
     25 C          61.1508   87.6933    9.2133 C.ar    1  UNL1        0.0425
     26 C          59.6082   90.0020   11.7232 C.3     1  UNL1        0.0051
     27 C          60.8252   89.6065   10.9406 C.3     1  UNL1        0.0276
     28 C          61.4765   85.7800    7.4860 C.3     1  UNL1        0.0276
     29 C          62.5881   84.8746    7.0449 C.3     1  UNL1        0.0051
     30 N          59.9509   95.6761    1.5851 N.pl3   1  UNL1       -0.1896
     31 H          60.0080   96.5196    2.0896 H       1  UNL1        0.2524
     32 C          59.1997   95.6274    0.2877 C.ar    1  UNL1        0.1435
     33 C          57.7383   95.2895    0.2795 C.ar    1  UNL1        0.0356
     34 C          56.9870   95.2409   -1.0179 C.ar    1  UNL1        0.0174
     35 C          57.6972   95.5301   -2.3071 C.ar    1  UNL1        0.0511
     36 C          59.1586   95.8681   -2.2989 C.ar    1  UNL1        0.0541
     37 C          59.9098   95.9167   -1.0014 C.ar    1  UNL1        0.1684
     38 N          56.9460   95.4815   -3.6046 N.pl3   1  UNL1       -0.3072
     39 C          57.1006   94.3009   -4.5168 C.3     1  UNL1        0.0932
     40 C          56.3494   94.2522   -5.8143 C.3     1  UNL1        0.0497
     41 C          55.4438   95.3841   -6.1994 C.3     1  UNL1        0.1063
     42 O          55.2618   94.4886   -7.3890 O.3     1  UNL1       -0.3853
     43 C          55.2892   96.5648   -5.2872 C.3     1  UNL1        0.0497
     44 C          56.0403   96.6135   -3.9897 C.3     1  UNL1        0.0932
     45 H          55.8029   93.6911   -7.2791 H       1  UNL1        0.2103
     46 C          54.4748   96.2051   -6.9978 C.3     1  UNL1        0.0994
     47 N          53.0274   96.2476   -6.6064 N.3     1  UNL1       -0.2683
     48 C          52.6294   96.7786   -5.2612 C.3     1  UNL1        0.0897
     49 C          51.1819   96.8211   -4.8700 C.3     1  UNL1        0.0897
     50 N          50.1325   96.3327   -5.8239 N.3     1  UNL1       -0.2691
     51 C          48.6851   96.3752   -5.4326 C.3     1  UNL1        0.0897
     52 C          50.5304   95.8017   -7.1692 C.3     1  UNL1        0.0897
     53 C          51.9779   95.7592   -7.5604 C.3     1  UNL1        0.0897
     54 O          61.3712   96.2546   -0.9932 O.3     1  UNL1       -0.4687
     55 C          62.1469   96.2609   -2.2770 C.3     1  UNL1        0.2526
@<TRIPOS>BOND
     1    26    27    1
     2    27    20    1
     3    20    21   ar
     4    21    22   ar
     5    22    23   ar
     6    23    24   ar
     7    24    28    1
     8    28    29    1
     9    24    25   ar
    10    25    16    1
    11    16    17   am
    12    17    18    2
    13    17    10    1
    14    10    11   ar
    15    11    12   ar
    16    12     1    1
    17     1     2    2
    18     2     3    1
    19     3    30    1
    20    30    32    1
    21    32    33   ar
    22    33    34   ar
    23    34    35   ar
    24    35    38    1
    25    38    39    1
    26    39    40    1
    27    40    41    1
    28    41    42    1
    29    41    46    1
    30    46    47    1
    31    47    48    1
    32    48    49    1
    33    49    50    1
    34    50    51    1
    35    50    52    1
    36    52    53    1
    37    41    43    1
    38    43    44    1
    39    35    36   ar
    40    36    37   ar
    41    37    54    1
    42    54    55    1
    43     3     4    2
    44     4     5    1
    45     5     6    2
    46     6     7    1
    47     7     8    2
    48     8     9    1
    49    12    13   ar
    50    13    14    1
    51    13    15   ar
    52    25    20   ar
    53    15    10   ar
    54     9     1    1
    55    37    32   ar
    56     9     5    1
    57    44    38    1
    58    53    47    1
    59    16    19    1
    60    30    31    1
    61    42    45    1
@<TRIPOS>MOLECULE
*****
 55 61 0 0 0
SMALL
GASTEIGER

@<TRIPOS>ATOM
      1 C          60.2836   92.3800    2.9434 C.2     1  UNL1        0.1699
      2 N          59.4781   91.8820    4.1066 N.2     1  UNL1       -0.0640
      3 C          60.1252   91.0277    5.1560 C.cat   1  UNL1        0.4643
      4 N          61.5778   90.6713    5.0422 N.2     1  UNL1        0.0296
      5 C          62.3833   91.1693    3.8789 C.2     1  UNL1        0.3686
      6 N          63.8231   90.9830    3.5020 N.2     1  UNL1       -0.0340
      7 C          64.0659   91.7222    2.2196 C.2     1  UNL1        0.2321
      8 C          62.7761   92.3654    1.8040 C.2     1  UNL1        0.0440
      9 C          61.7361   92.0236    2.8295 C.3     1  UNL1        0.1961
     10 C          58.2682   93.9511    0.0219 C.ar    1  UNL1        0.1559
     11 C          58.6535   92.7690    0.8610 C.ar    1  UNL1        0.0469
     12 C          59.6364   93.2344    1.8939 C.ar    1  UNL1        0.1105
     13 N          59.8587   94.7042    1.6933 N.ar    1  UNL1       -0.2461
     14 C          60.7671   95.5776    2.5068 C.3     1  UNL1        0.1538
     15 N          59.0131   95.1472    0.5363 N.ar    1  UNL1       -0.1645
     16 N          57.4470   94.9446   -2.2339 N.am    1  UNL1       -0.2796
     17 C          57.3068   93.9393   -1.1295 C.2     1  UNL1        0.2690
     18 O          56.2053   92.9223   -1.1764 O.2     1  UNL1       -0.2681
     19 H          58.1699   95.6121   -2.2031 H       1  UNL1        0.1552
     20 C          55.3295   95.8883   -3.4068 C.ar    1  UNL1       -0.0090
     21 C          54.3681   95.8764   -4.5582 C.ar    1  UNL1       -0.0031
     22 C          54.5630   94.9092   -5.6880 C.ar    1  UNL1       -0.0006
     23 C          55.7191   93.9538   -5.6665 C.ar    1  UNL1       -0.0031
     24 C          56.6805   93.9655   -4.5151 C.ar    1  UNL1       -0.0090
     25 C          56.4856   94.9328   -3.3853 C.ar    1  UNL1        0.0425
     26 C          54.3093   96.4630   -1.0876 C.3     1  UNL1        0.0051
     27 C          55.1347   96.8555   -2.2770 C.3     1  UNL1        0.0276
     28 C          57.8366   93.0101   -4.4936 C.3     1  UNL1        0.0276
     29 C          57.5881   91.5312   -4.5252 C.3     1  UNL1        0.0051
     30 N          59.3197   90.5297    6.3194 N.pl3   1  UNL1       -0.1896
     31 H          58.3406   90.6334    6.3206 H       1  UNL1        0.2524
     32 C          60.0059   89.8738    7.4808 C.ar    1  UNL1        0.1435
     33 C          60.8694   90.6873    8.3987 C.ar    1  UNL1        0.0356
     34 C          61.5556   90.0314    9.5601 C.ar    1  UNL1        0.0174
     35 C          61.3783   88.5620    9.8037 C.ar    1  UNL1        0.0511
     36 C          60.5147   87.7485    8.8858 C.ar    1  UNL1        0.0541
     37 C          59.8285   88.4044    7.7244 C.ar    1  UNL1        0.1684
     38 N          62.0644   87.9059   10.9651 N.pl3   1  UNL1       -0.3072
     39 C          62.9341   88.7180   11.8785 C.3     1  UNL1        0.0932
     40 C          63.6203   88.0620   13.0400 C.3     1  UNL1        0.0497
     41 C          63.4368   86.5941   13.2879 C.3     1  UNL1        0.1063
     42 O          64.3533   86.9378   14.4246 O.3     1  UNL1       -0.3853
     43 C          62.5671   85.7821   12.3745 C.3     1  UNL1        0.0497
     44 C          61.8809   86.4380   11.2130 C.3     1  UNL1        0.0932
     45 H          64.5659   87.8837   14.3939 H       1  UNL1        0.2103
     46 C          63.5716   85.2455   13.9306 C.3     1  UNL1        0.0994
     47 N          63.4428   84.0028   13.1005 N.3     1  UNL1       -0.2683
     48 C          62.4795   82.9268   13.5055 C.3     1  UNL1        0.0897
     49 C          62.3507   81.6841   12.6753 C.3     1  UNL1        0.0897
     50 N          63.1852   81.5175   11.4401 N.3     1  UNL1       -0.2691
     51 C          63.0565   80.2749   10.6099 C.3     1  UNL1        0.0897
     52 C          64.1486   82.5935   11.0350 C.3     1  UNL1        0.0897
     53 C          64.2774   83.8362   11.8652 C.3     1  UNL1        0.0897
     54 O          58.9650   87.5909    6.8065 O.3     1  UNL1       -0.4687
     55 C          58.6474   86.1643    7.1439 C.3     1  UNL1        0.2526
@<TRIPOS>BOND
     1    26    27    1
     2    27    20    1
     3    20    21   ar
     4    21    22   ar
     5    22    23   ar
     6    23    24   ar
     7    24    28    1
     8    28    29    1
     9    24    25   ar
    10    25    16    1
    11    16    17   am
    12    17    18    2
    13    17    10    1
    14    10    11   ar
    15    11    12   ar
    16    12     1    1
    17     1     2    2
    18     2     3    1
    19     3    30    1
    20    30    32    1
    21    32    33   ar
    22    33    34   ar
    23    34    35   ar
    24    35    38    1
    25    38    39    1
    26    39    40    1
    27    40    41    1
    28    41    42    1
    29    41    46    1
    30    46    47    1
    31    47    48    1
    32    48    49    1
    33    49    50    1
    34    50    51    1
    35    50    52    1
    36    52    53    1
    37    41    43    1
    38    43    44    1
    39    35    36   ar
    40    36    37   ar
    41    37    54    1
    42    54    55    1
    43     3     4    2
    44     4     5    1
    45     5     6    2
    46     6     7    1
    47     7     8    2
    48     8     9    1
    49    12    13   ar
    50    13    14    1
    51    13    15   ar
    52    25    20   ar
    53    15    10   ar
    54     9     1    1
    55    37    32   ar
    56     9     5    1
    57    44    38    1
    58    53    47    1
    59    16    19    1
    60    30    31    1
    61    42    45    1
@<TRIPOS>MOLECULE
*****
 55 61 0 0 0
SMALL
GASTEIGER

@<TRIPOS>ATOM
      1 C          60.3044   92.3710    2.9780 C.2     1  UNL1        0.1699
      2 N          59.4961   91.8776    4.1413 N.2     1  UNL1       -0.0640
      3 C          60.1362   91.0127    5.1863 C.cat   1  UNL1        0.4643
      4 N          61.5847   90.6410    5.0680 N.2     1  UNL1        0.0296
      5 C          62.3929   91.1344    3.9047 C.2     1  UNL1        0.3686
      6 N          63.8299   90.9339    3.5239 N.2     1  UNL1       -0.0340
      7 C          64.0778   91.6750    2.2436 C.2     1  UNL1        0.2321
      8 C          62.7941   92.3335    1.8331 C.2     1  UNL1        0.0440
      9 C          61.7528   91.9994    2.8597 C.3     1  UNL1        0.1961
     10 C          58.3235   93.9681    0.0470 C.ar    1  UNL1        0.1559
     11 C          58.7126   92.7753    0.8691 C.ar    1  UNL1        0.0469
     12 C          59.6642   93.2360    1.9330 C.ar    1  UNL1        0.1105
     13 N          59.8634   94.7136    1.7686 N.ar    1  UNL1       -0.2461
     14 C          60.7376   95.5856    2.6202 C.3     1  UNL1        0.1538
     15 N          59.0348   95.1661    0.6029 N.ar    1  UNL1       -0.1645
     16 N          57.4396   95.0757   -2.1305 N.am    1  UNL1       -0.2796
     17 C          57.3876   93.9638   -1.1251 C.2     1  UNL1        0.2690
     18 O          56.3996   92.8476   -1.2919 O.2     1  UNL1       -0.2681
     19 H          58.0881   95.8084   -2.0211 H       1  UNL1        0.1552
     20 C          56.8873   94.3597   -4.5661 C.ar    1  UNL1       -0.0090
     21 C          55.9512   94.3554   -5.7383 C.ar    1  UNL1       -0.0031
     22 C          54.6318   95.0629   -5.6469 C.ar    1  UNL1       -0.0006
     23 C          54.2482   95.7747   -4.3835 C.ar    1  UNL1       -0.0031
     24 C          55.1841   95.7790   -3.2113 C.ar    1  UNL1       -0.0090
     25 C          56.5037   95.0714   -3.3027 C.ar    1  UNL1        0.0425
     26 C          59.3047   94.2196   -5.5074 C.3     1  UNL1        0.0051
     27 C          58.2068   93.6522   -4.6574 C.3     1  UNL1        0.0276
     28 C          54.8006   96.4908   -1.9479 C.3     1  UNL1        0.0276
     29 C          53.4794   96.2051   -1.2977 C.3     1  UNL1        0.0051
     30 N          59.3279   90.5193    6.3496 N.pl3   1  UNL1       -0.1896
     31 H          58.3503   90.6351    6.3542 H       1  UNL1        0.2524
     32 C          60.0092   89.8495    7.5060 C.ar    1  UNL1        0.1435
     33 C          60.8525   90.6555    8.4489 C.ar    1  UNL1        0.0356
     34 C          61.5338   89.9857    9.6053 C.ar    1  UNL1        0.0174
     35 C          61.3719   88.5098    9.8187 C.ar    1  UNL1        0.0511
     36 C          60.5286   87.7038    8.8758 C.ar    1  UNL1        0.0541
     37 C          59.8473   88.3736    7.7194 C.ar    1  UNL1        0.1684
     38 N          62.0532   87.8399   10.9751 N.pl3   1  UNL1       -0.3072
     39 C          62.9053   88.6440   11.9116 C.3     1  UNL1        0.0932
     40 C          63.5866   87.9742   13.0680 C.3     1  UNL1        0.0497
     41 C          63.4157   86.5003   13.2877 C.3     1  UNL1        0.1063
     42 O          64.3173   86.8325   14.4396 O.3     1  UNL1       -0.3853
     43 C          62.5635   85.6962   12.3511 C.3     1  UNL1        0.0497
     44 C          61.8822   86.3660   11.1948 C.3     1  UNL1        0.0932
     45 H          64.5205   87.7809   14.4280 H       1  UNL1        0.2103
     46 C          63.5580   85.1417   13.9075 C.3     1  UNL1        0.0994
     47 N          63.4405   83.9127   13.0556 N.3     1  UNL1       -0.2683
     48 C          64.3307   83.7404   11.8608 C.3     1  UNL1        0.0897
     49 C          64.2132   82.5113   11.0089 C.3     1  UNL1        0.0897
     50 N          63.2054   81.4546   11.3518 N.3     1  UNL1       -0.2691
     51 C          63.0878   80.2257   10.5000 C.3     1  UNL1        0.0897
     52 C          62.3150   81.6269   12.5467 C.3     1  UNL1        0.0897
     53 C          62.4326   82.8559   13.3986 C.3     1  UNL1        0.0897
     54 O          59.0040   87.5675    6.7765 O.3     1  UNL1       -0.4687
     55 C          58.9521   86.0741    6.9064 C.3     1  UNL1        0.2526
@<TRIPOS>BOND
     1    26    27    1
     2    27    20    1
     3    20    21   ar
     4    21    22   ar
     5    22    23   ar
     6    23    24   ar
     7    24    28    1
     8    28    29    1
     9    24    25   ar
    10    25    16    1
    11    16    17   am
    12    17    18    2
    13    17    10    1
    14    10    11   ar
    15    11    12   ar
    16    12     1    1
    17     1     2    2
    18     2     3    1
    19     3    30    1
    20    30    32    1
    21    32    33   ar
    22    33    34   ar
    23    34    35   ar
    24    35    38    1
    25    38    39    1
    26    39    40    1
    27    40    41    1
    28    41    42    1
    29    41    46    1
    30    46    47    1
    31    47    48    1
    32    48    49    1
    33    49    50    1
    34    50    51    1
    35    50    52    1
    36    52    53    1
    37    41    43    1
    38    43    44    1
    39    35    36   ar
    40    36    37   ar
    41    37    54    1
    42    54    55    1
    43     3     4    2
    44     4     5    1
    45     5     6    2
    46     6     7    1
    47     7     8    2
    48     8     9    1
    49    12    13   ar
    50    13    14    1
    51    13    15   ar
    52    25    20   ar
    53    15    10   ar
    54     9     1    1
    55    37    32   ar
    56     9     5    1
    57    44    38    1
    58    53    47    1
    59    16    19    1
    60    30    31    1
    61    42    45    1
@<TRIPOS>MOLECULE
*****
 55 61 0 0 0
SMALL
GASTEIGER

@<TRIPOS>ATOM
      1 C          60.7357   87.9205    8.7598 C.2     1  UNL1        0.1699
      2 N          60.2033   88.3110    7.4130 N.2     1  UNL1       -0.0640
      3 C          59.5021   89.6250    7.2360 C.cat   1  UNL1        0.4643
      4 N          59.3331   90.5487    8.4058 N.2     1  UNL1        0.0296
      5 C          59.8655   90.1581    9.7527 C.2     1  UNL1        0.3686
      6 N          59.8483   90.8569   11.0798 N.2     1  UNL1       -0.0340
      7 C          60.5390   89.9746   12.0771 C.2     1  UNL1        0.2321
      8 C          60.9831   88.7306   11.3663 C.2     1  UNL1        0.0440
      9 C          60.5668   88.8440    9.9297 C.3     1  UNL1        0.1961
     10 C          62.6215   84.7382    9.9355 C.ar    1  UNL1        0.1559
     11 C          62.0196   86.0832   10.2161 C.ar    1  UNL1        0.0469
     12 C          61.4370   86.6064    8.9368 C.ar    1  UNL1        0.1105
     13 N          61.6789   85.5848    7.8654 N.ar    1  UNL1       -0.2461
     14 C          61.2619   85.6979    6.4290 C.3     1  UNL1        0.1538
     15 N          62.4109   84.4302    8.4827 N.ar    1  UNL1       -0.1645
     16 N          62.6633   83.5644   12.2530 N.am    1  UNL1       -0.2796
     17 C          63.3126   83.8561   10.9327 C.2     1  UNL1        0.2690
     18 O          64.6532   83.2658   10.6095 O.2     1  UNL1       -0.2681
     19 H          61.7835   83.9519   12.4651 H       1  UNL1        0.1552
     20 C          63.2305   81.1912   13.1451 C.ar    1  UNL1       -0.0090
     21 C          63.9217   80.3091   14.1423 C.ar    1  UNL1       -0.0031
     22 C          64.7368   80.9183   15.2443 C.ar    1  UNL1       -0.0006
     23 C          64.8607   82.4095   15.3493 C.ar    1  UNL1       -0.0031
     24 C          64.1695   83.2916   14.3522 C.ar    1  UNL1       -0.0090
     25 C          63.3544   82.6823   13.2501 C.ar    1  UNL1        0.0425
     26 C          63.0695   80.2055   10.7467 C.3     1  UNL1        0.0051
     27 C          62.4155   80.5821   12.0430 C.3     1  UNL1        0.0276
     28 C          64.2934   84.7827   14.4572 C.3     1  UNL1        0.0276
     29 C          63.8129   85.4903   15.6895 C.3     1  UNL1        0.0051
     30 N          58.9697   90.0156    5.8890 N.pl3   1  UNL1       -0.1896
     31 H          58.0579   89.7540    5.6253 H       1  UNL1        0.2524
     32 C          59.8264   90.8049    4.9440 C.ar    1  UNL1        0.1435
     33 C          61.2448   90.3877    4.6911 C.ar    1  UNL1        0.0356
     34 C          62.1016   91.1770    3.7460 C.ar    1  UNL1        0.0174
     35 C          61.5398   92.3834    3.0539 C.ar    1  UNL1        0.0511
     36 C          60.1214   92.8005    3.3068 C.ar    1  UNL1        0.0541
     37 C          59.2647   92.0113    4.2518 C.ar    1  UNL1        0.1684
     38 N          62.3965   93.1727    2.1088 N.pl3   1  UNL1       -0.3072
     39 C          63.8799   92.9522    2.0790 C.3     1  UNL1        0.0932
     40 C          64.7366   93.7414    1.1339 C.3     1  UNL1        0.0497
     41 C          64.1099   94.7512    0.2188 C.3     1  UNL1        0.1063
     42 O          65.5493   94.8992   -0.1766 O.3     1  UNL1       -0.3853
     43 C          62.6265   94.9717    0.2486 C.3     1  UNL1        0.0497
     44 C          61.7698   94.1824    1.1936 C.3     1  UNL1        0.0932
     45 H          66.0928   94.2901    0.3472 H       1  UNL1        0.2103
     46 C          63.9831   95.8124   -0.8338 C.3     1  UNL1        0.0994
     47 N          64.3103   95.4944   -2.2627 N.3     1  UNL1       -0.2683
     48 C          63.9030   94.1755   -2.8498 C.3     1  UNL1        0.0897
     49 C          64.2303   93.8575   -4.2787 C.3     1  UNL1        0.0897
     50 N          64.9648   94.8583   -5.1205 N.3     1  UNL1       -0.2691
     51 C          65.2920   94.5404   -6.5494 C.3     1  UNL1        0.0897
     52 C          65.3721   96.1773   -4.5335 C.3     1  UNL1        0.0897
     53 C          65.0449   96.4953   -3.1046 C.3     1  UNL1        0.0897
     54 O          57.8462   92.4284    4.5047 O.3     1  UNL1       -0.4687
     55 C          56.8176   91.4021    4.8769 C.3     1  UNL1        0.2526
@<TRIPOS>BOND
     1    26    27    1
     2    27    20    1
     3    20    21   ar
     4    21    22   ar
     5    22    23   ar
     6    23    24   ar
     7    24    28    1
     8    28    29    1
     9    24    25   ar
    10    25    16    1
    11    16    17   am
    12    17    18    2
    13    17    10    1
    14    10    11   ar
    15    11    12   ar
    16    12     1    1
    17     1     2    2
    18     2     3    1
    19     3    30    1
    20    30    32    1
    21    32    33   ar
    22    33    34   ar
    23    34    35   ar
    24    35    38    1
    25    38    39    1
    26    39    40    1
    27    40    41    1
    28    41    42    1
    29    41    46    1
    30    46    47    1
    31    47    48    1
    32    48    49    1
    33    49    50    1
    34    50    51    1
    35    50    52    1
    36    52    53    1
    37    41    43    1
    38    43    44    1
    39    35    36   ar
    40    36    37   ar
    41    37    54    1
    42    54    55    1
    43     3     4    2
    44     4     5    1
    45     5     6    2
    46     6     7    1
    47     7     8    2
    48     8     9    1
    49    12    13   ar
    50    13    14    1
    51    13    15   ar
    52    25    20   ar
    53    15    10   ar
    54     9     1    1
    55    37    32   ar
    56     9     5    1
    57    44    38    1
    58    53    47    1
    59    16    19    1
    60    30    31    1
    61    42    45    1
@<TRIPOS>MOLECULE
*****
 55 61 0 0 0
SMALL
GASTEIGER

@<TRIPOS>ATOM
      1 C          60.7380   87.9274    8.7687 C.2     1  UNL1        0.1699
      2 N          60.2009   88.3199    7.4244 N.2     1  UNL1       -0.0640
      3 C          59.4998   89.6346    7.2516 C.cat   1  UNL1        0.4643
      4 N          59.3357   90.5569    8.4232 N.2     1  UNL1        0.0296
      5 C          59.8728   90.1643    9.7676 C.2     1  UNL1        0.3686
      6 N          59.8610   90.8614   11.0957 N.2     1  UNL1       -0.0340
      7 C          60.5548   89.9774   12.0893 C.2     1  UNL1        0.2321
      8 C          60.9954   88.7340   11.3753 C.2     1  UNL1        0.0440
      9 C          60.5739   88.8495    9.9404 C.3     1  UNL1        0.1961
     10 C          62.6225   84.7407    9.9344 C.ar    1  UNL1        0.1559
     11 C          62.0203   86.0845   10.2195 C.ar    1  UNL1        0.0469
     12 C          61.4391   86.6126    8.9415 C.ar    1  UNL1        0.1105
     13 N          61.6821   85.5951    7.8665 N.ar    1  UNL1       -0.2461
     14 C          61.2667   85.7137    6.4301 C.3     1  UNL1        0.1538
     15 N          62.4135   84.4381    8.4802 N.ar    1  UNL1       -0.1645
     16 N          62.6822   83.5934   12.2647 N.am    1  UNL1       -0.2796
     17 C          63.3125   83.8548   10.9289 C.2     1  UNL1        0.2690
     18 O          64.6329   83.2302   10.5877 O.2     1  UNL1       -0.2681
     19 H          61.8155   84.0033   12.4887 H       1  UNL1        0.1552
     20 C          64.1977   83.3120   14.3561 C.ar    1  UNL1       -0.0090
     21 C          64.8877   82.4261   15.3506 C.ar    1  UNL1       -0.0031
     22 C          64.7523   80.9357   15.2482 C.ar    1  UNL1       -0.0006
     23 C          63.9268   80.3313   14.1512 C.ar    1  UNL1       -0.0031
     24 C          63.2368   81.2171   13.1567 C.ar    1  UNL1       -0.0090
     25 C          63.3722   82.7076   13.2592 C.ar    1  UNL1        0.0425
     26 C          63.8543   85.5162   15.6878 C.3     1  UNL1        0.0051
     27 C          64.3331   84.8024   14.4586 C.3     1  UNL1        0.0276
     28 C          62.4113   80.6127   12.0598 C.3     1  UNL1        0.0276
     29 C          63.0719   80.1334   10.8012 C.3     1  UNL1        0.0051
     30 N          58.9627   90.0272    5.9071 N.pl3   1  UNL1       -0.1896
     31 H          58.0476   89.7719    5.6489 H       1  UNL1        0.2524
     32 C          59.8198   90.8089    4.9561 C.ar    1  UNL1        0.1435
     33 C          61.2382   90.3894    4.7068 C.ar    1  UNL1        0.0356
     34 C          62.0953   91.1711    3.7558 C.ar    1  UNL1        0.0174
     35 C          61.5341   92.3722    3.0542 C.ar    1  UNL1        0.0511
     36 C          60.1157   92.7917    3.3036 C.ar    1  UNL1        0.0541
     37 C          59.2586   92.0100    4.2545 C.ar    1  UNL1        0.1684
     38 N          62.3912   93.1539    2.1032 N.pl3   1  UNL1       -0.3072
     39 C          63.8821   92.9920    2.1309 C.3     1  UNL1        0.0932
     40 C          64.7393   93.7737    1.1799 C.3     1  UNL1        0.0497
     41 C          64.1054   94.7173    0.2013 C.3     1  UNL1        0.1063
     42 O          65.5505   94.9058   -0.1537 O.3     1  UNL1       -0.3853
     43 C          62.6144   94.8792    0.1736 C.3     1  UNL1        0.0497
     44 C          61.7573   94.0976    1.1246 C.3     1  UNL1        0.0932
     45 H          66.0991   94.3420    0.4138 H       1  UNL1        0.2103
     46 C          63.9734   95.7264   -0.9006 C.3     1  UNL1        0.0994
     47 N          64.2790   95.3354   -2.3162 N.3     1  UNL1       -0.2683
     48 C          64.9380   96.3166   -3.2397 C.3     1  UNL1        0.0897
     49 C          65.2435   95.9255   -4.6553 C.3     1  UNL1        0.0897
     50 N          64.8901   94.5533   -5.1473 N.3     1  UNL1       -0.2691
     51 C          65.1956   94.1622   -6.5627 C.3     1  UNL1        0.0897
     52 C          64.2311   93.5720   -4.2237 C.3     1  UNL1        0.0897
     53 C          63.9255   93.9631   -2.8081 C.3     1  UNL1        0.0897
     54 O          57.8402   92.4295    4.5039 O.3     1  UNL1       -0.4687
     55 C          56.8082   91.4044    4.8703 C.3     1  UNL1        0.2526
@<TRIPOS>BOND
     1    26    27    1
     2    27    20    1
     3    20    21   ar
     4    21    22   ar
     5    22    23   ar
     6    23    24   ar
     7    24    28    1
     8    28    29    1
     9    24    25   ar
    10    25    16    1
    11    16    17   am
    12    17    18    2
    13    17    10    1
    14    10    11   ar
    15    11    12   ar
    16    12     1    1
    17     1     2    2
    18     2     3    1
    19     3    30    1
    20    30    32    1
    21    32    33   ar
    22    33    34   ar
    23    34    35   ar
    24    35    38    1
    25    38    39    1
    26    39    40    1
    27    40    41    1
    28    41    42    1
    29    41    46    1
    30    46    47    1
    31    47    48    1
    32    48    49    1
    33    49    50    1
    34    50    51    1
    35    50    52    1
    36    52    53    1
    37    41    43    1
    38    43    44    1
    39    35    36   ar
    40    36    37   ar
    41    37    54    1
    42    54    55    1
    43     3     4    2
    44     4     5    1
    45     5     6    2
    46     6     7    1
    47     7     8    2
    48     8     9    1
    49    12    13   ar
    50    13    14    1
    51    13    15   ar
    52    25    20   ar
    53    15    10   ar
    54     9     1    1
    55    37    32   ar
    56     9     5    1
    57    44    38    1
    58    53    47    1
    59    16    19    1
    60    30    31    1
    61    42    45    1
@<TRIPOS>MOLECULE
*****
 55 61 0 0 0
SMALL
GASTEIGER

@<TRIPOS>ATOM
      1 C          60.2961   92.4263    2.8686 C.2     1  UNL1        0.1699
      2 N          59.4866   91.9203    4.0256 N.2     1  UNL1       -0.0640
      3 C          60.1359   91.0793    5.0843 C.cat   1  UNL1        0.4643
      4 N          61.5948   90.7444    4.9862 N.2     1  UNL1        0.0296
      5 C          62.4043   91.2505    3.8292 C.2     1  UNL1        0.3686
      6 N          63.8504   91.0845    3.4672 N.2     1  UNL1       -0.0340
      7 C          64.0948   91.8230    2.1847 C.2     1  UNL1        0.2321
      8 C          62.7997   92.4453    1.7540 C.2     1  UNL1        0.0440
      9 C          61.7549   92.0914    2.7704 C.3     1  UNL1        0.1961
     10 C          58.3529   93.9449   -0.1286 C.ar    1  UNL1        0.1559
     11 C          58.7884   92.7641    0.6873 C.ar    1  UNL1        0.0469
     12 C          59.6467   93.2673    1.8098 C.ar    1  UNL1        0.1105
     13 N          59.7416   94.7593    1.6876 N.ar    1  UNL1       -0.2461
     14 C          60.5026   95.6722    2.6027 C.3     1  UNL1        0.1538
     15 N          58.9420   95.1781    0.4896 N.ar    1  UNL1       -0.1645
     16 N          58.1009   93.9240   -2.7143 N.am    1  UNL1       -0.2796
     17 C          57.4812   93.9004   -1.3485 C.2     1  UNL1        0.2690
     18 O          55.9899   93.8325   -1.2027 O.2     1  UNL1       -0.2681
     19 H          59.0797   93.9686   -2.8101 H       1  UNL1        0.1552
     20 C          56.6682   92.5715   -4.4079 C.ar    1  UNL1       -0.0090
     21 C          55.7965   92.5272   -5.6279 C.ar    1  UNL1       -0.0031
     22 C          55.4861   93.7908   -6.3742 C.ar    1  UNL1       -0.0006
     23 C          56.0472   95.0987   -5.9005 C.ar    1  UNL1       -0.0031
     24 C          56.9188   95.1432   -4.6806 C.ar    1  UNL1       -0.0090
     25 C          57.2293   93.8795   -3.9343 C.ar    1  UNL1        0.0425
     26 C          55.9371   90.6803   -2.7835 C.3     1  UNL1        0.0051
     27 C          56.9787   91.3080   -3.6616 C.3     1  UNL1        0.0276
     28 C          57.4799   96.4512   -4.2069 C.3     1  UNL1        0.0276
     29 C          58.8706   96.8559   -4.5970 C.3     1  UNL1        0.0051
     30 N          59.3264   90.5732    6.2414 N.pl3   1  UNL1       -0.1896
     31 H          58.3469   90.6722    6.2376 H       1  UNL1        0.2524
     32 C          60.0094   89.9164    7.4042 C.ar    1  UNL1        0.1435
     33 C          61.0216   90.6780    8.2075 C.ar    1  UNL1        0.0356
     34 C          61.7045   90.0211    9.3703 C.ar    1  UNL1        0.0174
     35 C          61.3752   88.6026    9.7298 C.ar    1  UNL1        0.0511
     36 C          60.3630   87.8409    8.9265 C.ar    1  UNL1        0.0541
     37 C          59.6801   88.4978    7.7637 C.ar    1  UNL1        0.1684
     38 N          62.0581   87.9456   10.8926 N.pl3   1  UNL1       -0.3072
     39 C          62.8851   88.7658   11.8378 C.3     1  UNL1        0.0932
     40 C          63.5680   88.1090   13.0006 C.3     1  UNL1        0.0497
     41 C          63.4239   86.6319   13.2182 C.3     1  UNL1        0.1063
     42 O          64.3074   86.9812   14.3790 O.3     1  UNL1       -0.3853
     43 C          62.5970   85.8116   12.2730 C.3     1  UNL1        0.0497
     44 C          61.9141   86.4685   11.1102 C.3     1  UNL1        0.0932
     45 H          64.4921   87.9334   14.3697 H       1  UNL1        0.2103
     46 C          63.5867   85.2760   13.8390 C.3     1  UNL1        0.0994
     47 N          63.4626   84.0439   12.9925 N.3     1  UNL1       -0.2683
     48 C          62.4760   82.9762   13.3622 C.3     1  UNL1        0.0897
     49 C          62.3520   81.7441   12.5157 C.3     1  UNL1        0.0897
     50 N          63.2145   81.5796   11.2996 N.3     1  UNL1       -0.2691
     51 C          63.0905   80.3475   10.4532 C.3     1  UNL1        0.0897
     52 C          64.2012   82.6473   10.9299 C.3     1  UNL1        0.0897
     53 C          64.3252   83.8794   11.7764 C.3     1  UNL1        0.0897
     54 O          58.6679   87.7361    6.9604 O.3     1  UNL1       -0.4687
     55 C          58.3405   86.3168    7.3183 C.3     1  UNL1        0.2526
@<TRIPOS>BOND
     1    26    27    1
     2    27    20    1
     3    20    21   ar
     4    21    22   ar
     5    22    23   ar
     6    23    24   ar
     7    24    28    1
     8    28    29    1
     9    24    25   ar
    10    25    16    1
    11    16    17   am
    12    17    18    2
    13    17    10    1
    14    10    11   ar
    15    11    12   ar
    16    12     1    1
    17     1     2    2
    18     2     3    1
    19     3    30    1
    20    30    32    1
    21    32    33   ar
    22    33    34   ar
    23    34    35   ar
    24    35    38    1
    25    38    39    1
    26    39    40    1
    27    40    41    1
    28    41    42    1
    29    41    46    1
    30    46    47    1
    31    47    48    1
    32    48    49    1
    33    49    50    1
    34    50    51    1
    35    50    52    1
    36    52    53    1
    37    41    43    1
    38    43    44    1
    39    35    36   ar
    40    36    37   ar
    41    37    54    1
    42    54    55    1
    43     3     4    2
    44     4     5    1
    45     5     6    2
    46     6     7    1
    47     7     8    2
    48     8     9    1
    49    12    13   ar
    50    13    14    1
    51    13    15   ar
    52    25    20   ar
    53    15    10   ar
    54     9     1    1
    55    37    32   ar
    56     9     5    1
    57    44    38    1
    58    53    47    1
    59    16    19    1
    60    30    31    1
    61    42    45    1
@<TRIPOS>MOLECULE
*****
 55 61 0 0 0
SMALL
GASTEIGER

@<TRIPOS>ATOM
      1 C          59.8342   93.8731    0.4959 C.2     1  UNL1        0.1699
      2 N          58.9201   93.4607    1.6114 N.2     1  UNL1       -0.0640
      3 C          59.4763   92.7668    2.8192 C.cat   1  UNL1        0.4643
      4 N          60.9468   92.4851    2.9116 N.2     1  UNL1        0.0296
      5 C          61.8609   92.8975    1.7961 C.2     1  UNL1        0.3686
      6 N          63.3422   92.7548    1.6077 N.2     1  UNL1       -0.0340
      7 C          63.7013   93.3606    0.2833 C.2     1  UNL1        0.2321
      8 C          62.4421   93.8777   -0.3467 C.2     1  UNL1        0.0440
      9 C          61.3046   93.5915    0.5883 C.3     1  UNL1        0.1961
     10 C          57.8587   95.1405   -2.5954 C.ar    1  UNL1        0.1559
     11 C          58.0396   94.1748   -1.4620 C.ar    1  UNL1        0.0469
     12 C          59.2779   94.5671   -0.7120 C.ar    1  UNL1        0.1105
     13 N          59.8624   95.7753   -1.3818 N.ar    1  UNL1       -0.2461
     14 C          61.1057   96.5016   -0.9614 C.3     1  UNL1        0.1538
     15 N          58.9852   96.1296   -2.5459 N.ar    1  UNL1       -0.1645
     16 N          56.1487   96.4088   -4.0845 N.am    1  UNL1       -0.2796
     17 C          56.7465   95.1205   -3.6017 C.2     1  UNL1        0.2690
     18 O          56.2320   93.8124   -4.1252 O.2     1  UNL1       -0.2681
     19 H          56.4864   97.2674   -3.7410 H       1  UNL1        0.1552
     20 C          55.3501   96.2726   -6.5531 C.ar    1  UNL1       -0.0090
     21 C          54.2379   96.2527   -7.5594 C.ar    1  UNL1       -0.0031
     22 C          52.8121   96.3490   -7.1034 C.ar    1  UNL1       -0.0006
     23 C          52.4986   96.4652   -5.6411 C.ar    1  UNL1       -0.0031
     24 C          53.6107   96.4851   -4.6348 C.ar    1  UNL1       -0.0090
     25 C          55.0366   96.3888   -5.0909 C.ar    1  UNL1        0.0425
     26 C          57.3884   94.8336   -7.2776 C.3     1  UNL1        0.0051
     27 C          56.7759   96.1763   -7.0090 C.3     1  UNL1        0.0276
     28 C          53.2972   96.6014   -3.1726 C.3     1  UNL1        0.0276
     29 C          52.1758   95.8004   -2.5800 C.3     1  UNL1        0.0051
     30 N          58.5621   92.3544    3.9347 N.pl3   1  UNL1       -0.1896
     31 H          57.6539   92.7301    3.9913 H       1  UNL1        0.2524
     32 C          59.0317   91.3694    4.9639 C.ar    1  UNL1        0.1435
     33 C          60.5002   91.1549    5.1817 C.ar    1  UNL1        0.0356
     34 C          60.9698   90.1700    6.2110 C.ar    1  UNL1        0.0174
     35 C          59.9709   89.3995    7.0225 C.ar    1  UNL1        0.0511
     36 C          58.5024   89.6140    6.8047 C.ar    1  UNL1        0.0541
     37 C          58.0328   90.5989    5.7754 C.ar    1  UNL1        0.1684
     38 N          60.4404   88.4145    8.0518 N.pl3   1  UNL1       -0.3072
     39 C          60.1708   86.9506    7.8667 C.3     1  UNL1        0.0932
     40 C          60.6403   85.9656    8.8960 C.3     1  UNL1        0.0497
     41 C          61.3794   86.4445   10.1102 C.3     1  UNL1        0.1063
     42 O          61.3647   84.9689   10.3793 O.3     1  UNL1       -0.3853
     43 C          61.6490   87.9084   10.2952 C.3     1  UNL1        0.0497
     44 C          61.1795   88.8935    9.2659 C.3     1  UNL1        0.0932
     45 H          60.9055   84.5130    9.6567 H       1  UNL1        0.2103
     46 C          62.1134   86.4110   11.4179 C.3     1  UNL1        0.0994
     47 N          62.6244   85.1082   11.9579 N.3     1  UNL1       -0.2683
     48 C          63.3370   84.1485   11.0517 C.3     1  UNL1        0.0897
     49 C          63.8480   82.8457   11.5918 C.3     1  UNL1        0.0897
     50 N          63.6464   82.5026   13.0380 N.3     1  UNL1       -0.2691
     51 C          64.1573   81.1999   13.5780 C.3     1  UNL1        0.0897
     52 C          62.9337   83.4622   13.9443 C.3     1  UNL1        0.0897
     53 C          62.4227   84.7650   13.4042 C.3     1  UNL1        0.0897
     54 O          56.5643   90.8134    5.5576 O.3     1  UNL1       -0.4687
     55 C          56.0947   91.8168    4.5465 C.3     1  UNL1        0.2526
@<TRIPOS>BOND
     1    26    27    1
     2    27    20    1
     3    20    21   ar
     4    21    22   ar
     5    22    23   ar
     6    23    24   ar
     7    24    28    1
     8    28    29    1
     9    24    25   ar
    10    25    16    1
    11    16    17   am
    12    17    18    2
    13    17    10    1
    14    10    11   ar
    15    11    12   ar
    16    12     1    1
    17     1     2    2
    18     2     3    1
    19     3    30    1
    20    30    32    1
    21    32    33   ar
    22    33    34   ar
    23    34    35   ar
    24    35    38    1
    25    38    39    1
    26    39    40    1
    27    40    41    1
    28    41    42    1
    29    41    46    1
    30    46    47    1
    31    47    48    1
    32    48    49    1
    33    49    50    1
    34    50    51    1
    35    50    52    1
    36    52    53    1
    37    41    43    1
    38    43    44    1
    39    35    36   ar
    40    36    37   ar
    41    37    54    1
    42    54    55    1
    43     3     4    2
    44     4     5    1
    45     5     6    2
    46     6     7    1
    47     7     8    2
    48     8     9    1
    49    12    13   ar
    50    13    14    1
    51    13    15   ar
    52    25    20   ar
    53    15    10   ar
    54     9     1    1
    55    37    32   ar
    56     9     5    1
    57    44    38    1
    58    53    47    1
    59    16    19    1
    60    30    31    1
    61    42    45    1
@<TRIPOS>MOLECULE
*****
 55 61 0 0 0
SMALL
GASTEIGER

@<TRIPOS>ATOM
      1 C          60.3244   92.3602    2.7546 C.2     1  UNL1        0.1699
      2 N          59.5276   91.8378    3.9132 N.2     1  UNL1       -0.0640
      3 C          60.2041   91.0455    4.9923 C.cat   1  UNL1        0.4643
      4 N          61.6775   90.7755    4.9129 N.2     1  UNL1        0.0296
      5 C          62.4743   91.2979    3.7544 C.2     1  UNL1        0.3686
      6 N          63.9299   91.1916    3.4081 N.2     1  UNL1       -0.0340
      7 C          64.1530   91.9183    2.1150 C.2     1  UNL1        0.2321
      8 C          62.8352   92.4736    1.6620 C.2     1  UNL1        0.0440
      9 C          61.7977   92.0902    2.6752 C.3     1  UNL1        0.1961
     10 C          58.3861   93.7350   -0.3142 C.ar    1  UNL1        0.1559
     11 C          58.8931   92.5880    0.5087 C.ar    1  UNL1        0.0469
     12 C          59.6478   93.1525    1.6755 C.ar    1  UNL1        0.1105
     13 N          59.6073   94.6485    1.5739 N.ar    1  UNL1       -0.2461
     14 C          60.2361   95.6148    2.5334 C.3     1  UNL1        0.1538
     15 N          58.8275   95.0085    0.3441 N.ar    1  UNL1       -0.1645
     16 N          58.1335   92.8938   -2.7593 N.am    1  UNL1       -0.2796
     17 C          57.5793   93.6275   -1.5742 C.2     1  UNL1        0.2690
     18 O          56.2183   94.2537   -1.6490 O.2     1  UNL1       -0.2681
     19 H          59.0267   92.4829   -2.7102 H       1  UNL1        0.1552
     20 C          57.5302   93.7771   -5.1270 C.ar    1  UNL1       -0.0090
     21 C          56.7234   93.6695   -6.3870 C.ar    1  UNL1       -0.0031
     22 C          55.7131   92.5713   -6.5392 C.ar    1  UNL1       -0.0006
     23 C          55.5096   91.5805   -5.4315 C.ar    1  UNL1       -0.0031
     24 C          56.3164   91.6880   -4.1715 C.ar    1  UNL1       -0.0090
     25 C          57.3267   92.7864   -4.0193 C.ar    1  UNL1        0.0425
     26 C          59.9641   94.6474   -5.3887 C.3     1  UNL1        0.0051
     27 C          58.5405   94.8753   -4.9747 C.3     1  UNL1        0.0276
     28 C          56.1129   90.6973   -3.0638 C.3     1  UNL1        0.0276
     29 C          55.0531   89.6428   -3.1860 C.3     1  UNL1        0.0051
     30 N          59.4072   90.5232    6.1509 N.pl3   1  UNL1       -0.1896
     31 H          58.4259   90.4717    6.0901 H       1  UNL1        0.2524
     32 C          60.1055   90.0792    7.4020 C.ar    1  UNL1        0.1435
     33 C          61.1494   90.9548    8.0293 C.ar    1  UNL1        0.0356
     34 C          61.8477   90.5109    9.2804 C.ar    1  UNL1        0.0174
     35 C          61.5020   89.1913    9.9043 C.ar    1  UNL1        0.0511
     36 C          60.4581   88.3157    9.2770 C.ar    1  UNL1        0.0541
     37 C          59.7598   88.7596    8.0259 C.ar    1  UNL1        0.1684
     38 N          62.2003   88.7473   11.1554 N.pl3   1  UNL1       -0.3072
     39 C          62.3585   89.6990   12.3040 C.3     1  UNL1        0.0932
     40 C          63.0568   89.2551   13.5551 C.3     1  UNL1        0.0497
     41 C          63.5966   87.8594   13.6577 C.3     1  UNL1        0.1063
     42 O          63.9899   88.3904   15.0043 O.3     1  UNL1       -0.3853
     43 C          63.4383   86.9077   12.5092 C.3     1  UNL1        0.0497
     44 C          62.7401   87.3516   11.2580 C.3     1  UNL1        0.0932
     45 H          63.6981   89.3119   15.0863 H       1  UNL1        0.2103
     46 C          64.2731   86.6481   14.2280 C.3     1  UNL1        0.0994
     47 N          63.5768   85.3197   14.2052 N.3     1  UNL1       -0.2683
     48 C          62.6714   84.9280   15.3352 C.3     1  UNL1        0.0897
     49 C          61.9751   83.5996   15.3123 C.3     1  UNL1        0.0897
     50 N          62.1841   82.6629   14.1596 N.3     1  UNL1       -0.2691
     51 C          61.4878   81.3346   14.1367 C.3     1  UNL1        0.0897
     52 C          63.0894   83.0546   13.0295 C.3     1  UNL1        0.0897
     53 C          63.7858   84.3830   13.0524 C.3     1  UNL1        0.0897
     54 O          58.7159   87.8840    7.3986 O.3     1  UNL1       -0.4687
     55 C          58.7778   86.3962    7.5789 C.3     1  UNL1        0.2526
@<TRIPOS>BOND
     1    26    27    1
     2    27    20    1
     3    20    21   ar
     4    21    22   ar
     5    22    23   ar
     6    23    24   ar
     7    24    28    1
     8    28    29    1
     9    24    25   ar
    10    25    16    1
    11    16    17   am
    12    17    18    2
    13    17    10    1
    14    10    11   ar
    15    11    12   ar
    16    12     1    1
    17     1     2    2
    18     2     3    1
    19     3    30    1
    20    30    32    1
    21    32    33   ar
    22    33    34   ar
    23    34    35   ar
    24    35    38    1
    25    38    39    1
    26    39    40    1
    27    40    41    1
    28    41    42    1
    29    41    46    1
    30    46    47    1
    31    47    48    1
    32    48    49    1
    33    49    50    1
    34    50    51    1
    35    50    52    1
    36    52    53    1
    37    41    43    1
    38    43    44    1
    39    35    36   ar
    40    36    37   ar
    41    37    54    1
    42    54    55    1
    43     3     4    2
    44     4     5    1
    45     5     6    2
    46     6     7    1
    47     7     8    2
    48     8     9    1
    49    12    13   ar
    50    13    14    1
    51    13    15   ar
    52    25    20   ar
    53    15    10   ar
    54     9     1    1
    55    37    32   ar
    56     9     5    1
    57    44    38    1
    58    53    47    1
    59    16    19    1
    60    30    31    1
    61    42    45    1
