@<TRIPOS>MOLECULE
*****
 12 13 0 0 0
SMALL
GASTEIGER

@<TRIPOS>ATOM
      1 C          59.3788   87.8010    7.9363 C.3     1  UNL1        0.1321
      2 N          60.1299   87.2793    9.1253 N.ar    1  UNL1       -0.3059
      3 C          60.0848   87.8445   10.5141 C.ar    1  UNL1        0.1786
      4 N          60.9850   87.0154   11.3813 N.ar    1  UNL1       -0.2238
      5 C          61.5865   85.9379   10.5286 C.ar    1  UNL1        0.1017
      6 C          61.0580   86.1010    9.1343 C.ar    1  UNL1        0.0965
      7 C          62.5477   84.8825   10.9893 C.ar    1  UNL1        0.0383
      8 C          63.3512   84.1101    9.9855 C.ar    1  UNL1        0.0047
      9 C          64.3124   83.0547   10.4463 C.ar    1  UNL1        0.0207
     10 C          64.4701   82.7718   11.9109 C.ar    1  UNL1        0.0989
     11 N          63.6666   83.5442   12.9147 N.ar    1  UNL1       -0.2423
     12 C          62.7054   84.5995   12.4539 C.ar    1  UNL1        0.1004
@<TRIPOS>BOND
     1     1     2    1
     2     2     3   ar
     3     3     4   ar
     4     4     5   ar
     5     5     7    1
     6     7     8   ar
     7     8     9   ar
     8     9    10   ar
     9    10    11   ar
    10    11    12   ar
    11     5     6   ar
    12     6     2   ar
    13    12     7   ar
@<TRIPOS>MOLECULE
*****
 12 13 0 0 0
SMALL
GASTEIGER

@<TRIPOS>ATOM
      1 C          67.2629   95.4706    8.2759 C.3     1  UNL1        0.1321
      2 N          67.3445   94.3393    9.2575 N.ar    1  UNL1       -0.3059
      3 C          68.3174   93.1986    9.2094 C.ar    1  UNL1        0.1786
      4 N          68.0416   92.3045   10.3817 N.ar    1  UNL1       -0.2238
      5 C          66.8983   92.8925   11.1544 C.ar    1  UNL1        0.1017
      6 C          66.4675   94.1501   10.4596 C.ar    1  UNL1        0.0965
      7 C          66.2922   92.3229   12.4028 C.ar    1  UNL1        0.0383
      8 C          67.1550   92.0534   13.5998 C.ar    1  UNL1        0.0047
      9 C          66.5489   91.4838   14.8481 C.ar    1  UNL1        0.0207
     10 C          65.0801   91.1838   14.8993 C.ar    1  UNL1        0.0989
     11 N          64.2174   91.4533   13.7022 N.ar    1  UNL1       -0.2423
     12 C          64.8235   92.0229   12.4539 C.ar    1  UNL1        0.1004
@<TRIPOS>BOND
     1     1     2    1
     2     2     3   ar
     3     3     4   ar
     4     4     5   ar
     5     5     7    1
     6     7     8   ar
     7     8     9   ar
     8     9    10   ar
     9    10    11   ar
    10    11    12   ar
    11     5     6   ar
    12     6     2   ar
    13    12     7   ar
@<TRIPOS>MOLECULE
*****
 12 13 0 0 0
SMALL
GASTEIGER

@<TRIPOS>ATOM
      1 C          67.1949   92.7472   16.0823 C.3     1  UNL1        0.1321
      2 N          66.4275   92.6101   14.8007 N.ar    1  UNL1       -0.3059
      3 C          66.4267   93.5894   13.6645 C.ar    1  UNL1        0.1786
      4 N          65.5249   93.0542   12.5920 N.ar    1  UNL1       -0.2238
      5 C          64.9683   91.7442   13.0654 C.ar    1  UNL1        0.1017
      6 C          65.5262   91.4697   14.4305 C.ar    1  UNL1        0.0965
      7 C          64.0203   90.8632   12.3069 C.ar    1  UNL1        0.0383
      8 C          63.5251   91.2833   10.9548 C.ar    1  UNL1        0.0047
      9 C          62.5771   90.4024   10.1963 C.ar    1  UNL1        0.0207
     10 C          62.1244   89.1014   10.7900 C.ar    1  UNL1        0.0989
     11 N          62.6196   88.6813   12.1421 N.ar    1  UNL1       -0.2423
     12 C          63.5676   89.5622   12.9005 C.ar    1  UNL1        0.1004
@<TRIPOS>BOND
     1     1     2    1
     2     2     3   ar
     3     3     4   ar
     4     4     5   ar
     5     5     7    1
     6     7     8   ar
     7     8     9   ar
     8     9    10   ar
     9    10    11   ar
    10    11    12   ar
    11     5     6   ar
    12     6     2   ar
    13    12     7   ar
@<TRIPOS>MOLECULE
*****
 12 13 0 0 0
SMALL
GASTEIGER

@<TRIPOS>ATOM
      1 C          63.5161   90.4308   14.4745 C.3     1  UNL1        0.1321
      2 N          64.7203   91.1333   13.9209 N.ar    1  UNL1       -0.3059
      3 C          66.0439   91.2894   14.6093 C.ar    1  UNL1        0.1786
      4 N          66.9540   92.0555   13.6956 N.ar    1  UNL1       -0.2238
      5 C          66.1929   92.3730   12.4426 C.ar    1  UNL1        0.1017
      6 C          64.8124   91.8030   12.5819 C.ar    1  UNL1        0.0965
      7 C          66.7198   93.1279   11.2583 C.ar    1  UNL1        0.0383
      8 C          67.5585   92.4242   10.2330 C.ar    1  UNL1        0.0047
      9 C          68.0853   93.1791    9.0487 C.ar    1  UNL1        0.0207
     10 C          67.7735   94.6377    8.8898 C.ar    1  UNL1        0.0989
     11 N          66.9348   95.3414    9.9152 N.ar    1  UNL1       -0.2423
     12 C          66.4079   94.5865   11.0994 C.ar    1  UNL1        0.1004
@<TRIPOS>BOND
     1     1     2    1
     2     2     3   ar
     3     3     4   ar
     4     4     5   ar
     5     5     7    1
     6     7     8   ar
     7     8     9   ar
     8     9    10   ar
     9    10    11   ar
    10    11    12   ar
    11     5     6   ar
    12     6     2   ar
    13    12     7   ar
@<TRIPOS>MOLECULE
*****
 12 13 0 0 0
SMALL
GASTEIGER

@<TRIPOS>ATOM
      1 C          64.3602   83.0230   11.1957 C.3     1  UNL1        0.1321
      2 N          63.3586   84.1396   11.1849 N.ar    1  UNL1       -0.3059
      3 C          62.7333   84.7748   12.3914 C.ar    1  UNL1        0.1786
      4 N          61.7947   85.8448   11.9178 N.ar    1  UNL1       -0.2238
      5 C          61.8400   85.8709   10.4187 C.ar    1  UNL1        0.1017
      6 C          62.8065   84.8170    9.9657 C.ar    1  UNL1        0.0965
      7 C          61.0562   86.7895    9.5288 C.ar    1  UNL1        0.0383
      8 C          60.1804   86.2229    8.4509 C.ar    1  UNL1        0.0047
      9 C          59.3967   87.1416    7.5611 C.ar    1  UNL1        0.0207
     10 C          59.4889   88.6269    7.7492 C.ar    1  UNL1        0.0989
     11 N          60.3647   89.1935    8.8270 N.ar    1  UNL1       -0.2423
     12 C          61.1484   88.2749    9.7168 C.ar    1  UNL1        0.1004
@<TRIPOS>BOND
     1     1     2    1
     2     2     3   ar
     3     3     4   ar
     4     4     5   ar
     5     5     7    1
     6     7     8   ar
     7     8     9   ar
     8     9    10   ar
     9    10    11   ar
    10    11    12   ar
    11     5     6   ar
    12     6     2   ar
    13    12     7   ar
@<TRIPOS>MOLECULE
*****
 12 13 0 0 0
SMALL
GASTEIGER

@<TRIPOS>ATOM
      1 C          67.2760   95.6346    8.1967 C.3     1  UNL1        0.1321
      2 N          66.8490   95.4533    9.6232 N.ar    1  UNL1       -0.3059
      3 C          66.4778   96.5486   10.5785 C.ar    1  UNL1        0.1786
      4 N          66.1177   95.9171   11.8905 N.ar    1  UNL1       -0.2238
      5 C          66.2663   94.4314   11.7461 C.ar    1  UNL1        0.1017
      6 C          66.7183   94.1448   10.3449 C.ar    1  UNL1        0.0965
      7 C          66.0083   93.4115   12.8153 C.ar    1  UNL1        0.0383
      8 C          65.1842   92.1961   12.5093 C.ar    1  UNL1        0.0047
      9 C          64.9262   91.1762   13.5785 C.ar    1  UNL1        0.0207
     10 C          65.4923   91.3717   14.9538 C.ar    1  UNL1        0.0989
     11 N          66.3164   92.5871   15.2598 N.ar    1  UNL1       -0.2423
     12 C          66.5744   93.6070   14.1906 C.ar    1  UNL1        0.1004
@<TRIPOS>BOND
     1     1     2    1
     2     2     3   ar
     3     3     4   ar
     4     4     5   ar
     5     5     7    1
     6     7     8   ar
     7     8     9   ar
     8     9    10   ar
     9    10    11   ar
    10    11    12   ar
    11     5     6   ar
    12     6     2   ar
    13    12     7   ar
@<TRIPOS>MOLECULE
*****
 12 13 0 0 0
SMALL
GASTEIGER

@<TRIPOS>ATOM
      1 C          66.0380   92.3239   15.6725 C.3     1  UNL1        0.1321
      2 N          65.8920   92.5725   14.2004 N.ar    1  UNL1       -0.3059
      3 C          65.1054   91.7326   13.2381 C.ar    1  UNL1        0.1786
      4 N          65.2344   92.3457   11.8752 N.ar    1  UNL1       -0.2238
      5 C          66.1006   93.5644   11.9951 C.ar    1  UNL1        0.1017
      6 C          66.5071   93.7046   13.4322 C.ar    1  UNL1        0.0965
      7 C          66.4918   94.4818   10.8747 C.ar    1  UNL1        0.0383
      8 C          67.2351   93.9427    9.6886 C.ar    1  UNL1        0.0047
      9 C          67.6262   94.8601    8.5682 C.ar    1  UNL1        0.0207
     10 C          67.2739   96.3167    8.6339 C.ar    1  UNL1        0.0989
     11 N          66.5306   96.8558    9.8199 N.ar    1  UNL1       -0.2423
     12 C          66.1395   95.9384   10.9403 C.ar    1  UNL1        0.1004
@<TRIPOS>BOND
     1     1     2    1
     2     2     3   ar
     3     3     4   ar
     4     4     5   ar
     5     5     7    1
     6     7     8   ar
     7     8     9   ar
     8     9    10   ar
     9    10    11   ar
    10    11    12   ar
    11     5     6   ar
    12     6     2   ar
    13    12     7   ar
@<TRIPOS>MOLECULE
*****
 12 13 0 0 0
SMALL
GASTEIGER

@<TRIPOS>ATOM
      1 C          61.7567   90.0881   11.6944 C.3     1  UNL1        0.1321
      2 N          63.0587   90.8161   11.8522 N.ar    1  UNL1       -0.3059
      3 C          63.7732   91.5870   10.7820 C.ar    1  UNL1        0.1786
      4 N          65.0309   92.1482   11.3764 N.ar    1  UNL1       -0.2238
      5 C          65.0937   91.7242   12.8138 C.ar    1  UNL1        0.1017
      6 C          63.8748   90.9009   13.1079 C.ar    1  UNL1        0.0965
      7 C          66.1840   92.0639   13.7865 C.ar    1  UNL1        0.0383
      8 C          65.8426   92.4058   15.2065 C.ar    1  UNL1        0.0047
      9 C          66.9329   92.7455   16.1790 C.ar    1  UNL1        0.0207
     10 C          68.3646   92.7432   15.7315 C.ar    1  UNL1        0.0989
     11 N          68.7060   92.4013   14.3115 N.ar    1  UNL1       -0.2423
     12 C          67.6157   92.0616   13.3390 C.ar    1  UNL1        0.1004
@<TRIPOS>BOND
     1     1     2    1
     2     2     3   ar
     3     3     4   ar
     4     4     5   ar
     5     5     7    1
     6     7     8   ar
     7     8     9   ar
     8     9    10   ar
     9    10    11   ar
    10    11    12   ar
    11     5     6   ar
    12     6     2   ar
    13    12     7   ar
@<TRIPOS>MOLECULE
*****
 12 13 0 0 0
SMALL
GASTEIGER

@<TRIPOS>ATOM
      1 C          60.1160   87.8412    8.3629 C.3     1  UNL1        0.1321
      2 N          60.9644   87.8333    9.6000 N.ar    1  UNL1       -0.3059
      3 C          61.2611   86.6392   10.4580 C.ar    1  UNL1        0.1786
      4 N          62.1450   87.0861   11.5845 N.ar    1  UNL1       -0.2238
      5 C          62.3945   88.5563   11.4227 C.ar    1  UNL1        0.1017
      6 C          61.6649   89.0181   10.1962 C.ar    1  UNL1        0.0965
      7 C          63.2276   89.4142   12.3285 C.ar    1  UNL1        0.0383
      8 C          63.8517   88.8221   13.5572 C.ar    1  UNL1        0.0047
      9 C          64.6847   89.6800   14.4629 C.ar    1  UNL1        0.0207
     10 C          64.8935   91.1298   14.1398 C.ar    1  UNL1        0.0989
     11 N          64.2693   91.7218   12.9110 N.ar    1  UNL1       -0.2423
     12 C          63.4363   90.8640   12.0054 C.ar    1  UNL1        0.1004
@<TRIPOS>BOND
     1     1     2    1
     2     2     3   ar
     3     3     4   ar
     4     4     5   ar
     5     5     7    1
     6     7     8   ar
     7     8     9   ar
     8     9    10   ar
     9    10    11   ar
    10    11    12   ar
    11     5     6   ar
    12     6     2   ar
    13    12     7   ar
