@<TRIPOS>MOLECULE
*****
 37 41 0 0 0
SMALL
GASTEIGER

@<TRIPOS>ATOM
      1 C          64.6760   91.1344   13.6856 C.3     1  UNL1        0.0760
      2 C          63.6078   90.2715   15.8912 C.ar    1  UNL1        0.1351
      3 C          63.1804   89.1327   16.7689 C.ar    1  UNL1        0.0366
      4 C          63.3938   87.7178   16.3187 C.ar    1  UNL1        0.0030
      5 C          62.9664   86.5790   17.1964 C.ar    1  UNL1        0.0006
      6 C          63.1798   85.1642   16.7462 C.ar    1  UNL1        0.0067
      7 C          63.8206   84.8881   15.4184 C.ar    1  UNL1        0.0346
      8 BR         64.0339   83.4732   14.9682 Br      1  UNL1       -0.0490
      9 C          64.2480   86.0270   14.5407 C.ar    1  UNL1        0.0067
     10 C          64.0346   87.4418   14.9909 C.ar    1  UNL1        0.0004
     11 C          64.4620   88.5807   14.1132 C.ar    1  UNL1       -0.0009
     12 C          64.2486   89.9955   14.5633 C.ar    1  UNL1        0.0181
     13 C          64.4337   92.3721   17.1780 C.3     1  UNL1        0.2525
     14 O          63.3945   91.6864   16.3413 O.3     1  UNL1       -0.4717
     15 C          65.8151   92.0165   14.1032 C.ar    1  UNL1       -0.0157
     16 C          65.7881   93.4806   13.7783 C.ar    1  UNL1       -0.0039
     17 C          66.9272   94.3627   14.1959 C.ar    1  UNL1       -0.0003
     18 C          68.0933   93.7807   14.9383 C.ar    1  UNL1       -0.0000
     19 C          68.1205   92.3165   15.2632 C.ar    1  UNL1       -0.0003
     20 C          66.9814   91.4344   14.8457 C.ar    1  UNL1       -0.0039
     21 C          63.9644   91.3912   12.3904 C.3     1  UNL1        0.1158
     22 O          62.6802   90.9144   13.0015 O.3     1  UNL1       -0.3820
     23 H          62.0538   90.6828   12.2981 H       1  UNL1        0.2107
     24 C          65.2486   91.8680   11.7794 C.ar    1  UNL1        0.0026
     25 C          66.5412   91.1906   12.1263 C.ar    1  UNL1        0.0011
     26 C          67.8254   91.6674   11.5152 C.ar    1  UNL1        0.0372
     27 C          67.8170   92.8216   10.5572 C.ar    1  UNL1        0.1454
     28 O          68.9170   93.5078    9.8028 O.2     1  UNL1       -0.4504
     29 C          68.3042   94.6093    8.9896 C.ar    1  UNL1        0.1796
     30 C          66.8255   94.6038    9.2414 C.ar    1  UNL1        0.0437
     31 C          66.5245   93.4989   10.2102 C.ar    1  UNL1        0.0375
     32 C          65.2402   93.0221   10.8213 C.ar    1  UNL1        0.0011
     33 C          63.2527   91.6479   11.0953 C.3     1  UNL1        0.0491
     34 C          62.8712   90.4997   10.2087 C.3     1  UNL1        0.0750
     35 N          61.7194   89.6142   10.5823 N.3     1  UNL1       -0.2702
     36 C          60.3183   90.1482   10.5397 C.3     1  UNL1        0.0897
     37 C          61.9687   88.1949   10.9983 C.3     1  UNL1        0.0897
@<TRIPOS>BOND
     1    13    14    1
     2    14     2    1
     3     2     3   ar
     4     3     4   ar
     5     4     5   ar
     6     5     6   ar
     7     6     7   ar
     8     7     8    1
     9     7     9   ar
    10     9    10   ar
    11    10    11   ar
    12    11    12   ar
    13     1    12    1
    14     1    15    1
    15    15    16   ar
    16    16    17   ar
    17    17    18   ar
    18    18    19   ar
    19    19    20   ar
    20     1    21    1
    21    21    22    1
    22    21    33    1
    23    33    34    1
    24    34    35    1
    25    35    36    1
    26    35    37    1
    27    21    24    1
    28    24    25   ar
    29    25    26   ar
    30    26    27   ar
    31    27    28   ar
    32    28    29   ar
    33    29    30   ar
    34    30    31   ar
    35    31    32   ar
    36    12     2   ar
    37    20    15   ar
    38    32    24   ar
    39    10     4   ar
    40    31    27   ar
    41    22    23    1
@<TRIPOS>MOLECULE
*****
 37 41 0 0 0
SMALL
GASTEIGER

@<TRIPOS>ATOM
      1 C          60.1464   93.7193   -2.0543 C.3     1  UNL1        0.0760
      2 C          59.1725   94.8677   -4.1716 C.ar    1  UNL1        0.1351
      3 C          58.2319   94.8549   -5.3399 C.ar    1  UNL1        0.0366
      4 C          57.3245   93.6808   -5.5595 C.ar    1  UNL1        0.0030
      5 C          56.3840   93.6679   -6.7278 C.ar    1  UNL1        0.0006
      6 C          55.4766   92.4939   -6.9473 C.ar    1  UNL1        0.0067
      7 C          55.5099   91.3326   -5.9985 C.ar    1  UNL1        0.0346
      8 BR         54.6025   90.1585   -6.2180 Br      1  UNL1       -0.0490
      9 C          56.4504   91.3454   -4.8301 C.ar    1  UNL1        0.0067
     10 C          57.3578   92.5195   -4.6106 C.ar    1  UNL1        0.0004
     11 C          58.2984   92.5323   -3.4422 C.ar    1  UNL1       -0.0009
     12 C          59.2057   93.7064   -3.2227 C.ar    1  UNL1        0.0181
     13 C          60.9491   96.5372   -5.0696 C.3     1  UNL1        0.2525
     14 O          60.0799   96.0418   -3.9520 O.3     1  UNL1       -0.4717
     15 C          61.5959   94.0442   -2.2620 C.ar    1  UNL1       -0.0157
     16 C          62.3656   93.3712   -3.3595 C.ar    1  UNL1       -0.0039
     17 C          63.8152   93.6961   -3.5672 C.ar    1  UNL1       -0.0003
     18 C          64.4951   94.6940   -2.6774 C.ar    1  UNL1       -0.0000
     19 C          63.7254   95.3671   -1.5798 C.ar    1  UNL1       -0.0003
     20 C          62.2758   95.0422   -1.3721 C.ar    1  UNL1       -0.0039
     21 C          59.6374   93.4072   -0.6782 C.3     1  UNL1        0.1158
     22 O          60.7982   92.4831   -0.4585 O.3     1  UNL1       -0.3820
     23 H          60.5962   91.8784    0.2726 H       1  UNL1        0.2107
     24 C          58.4766   94.3314   -0.8980 C.ar    1  UNL1        0.0026
     25 C          58.6791   95.8167   -0.8411 C.ar    1  UNL1        0.0011
     26 C          57.5183   96.7408   -1.0609 C.ar    1  UNL1        0.0372
     27 C          56.1549   96.1799   -1.3376 C.ar    1  UNL1        0.1454
     28 O          54.8315   96.8383   -1.5926 O.2     1  UNL1       -0.4504
     29 C          53.8110   95.7601   -1.8070 C.ar    1  UNL1        0.1796
     30 C          54.5038   94.4352   -1.6845 C.ar    1  UNL1        0.0437
     31 C          55.9524   94.6948   -1.3944 C.ar    1  UNL1        0.0375
     32 C          57.1132   93.7705   -1.1746 C.ar    1  UNL1        0.0011
     33 C          59.1284   93.0952    0.6978 C.3     1  UNL1        0.0491
     34 C          59.7910   93.7032    1.8983 C.3     1  UNL1        0.0750
     35 N          60.4542   92.8225    2.9155 N.3     1  UNL1       -0.2702
     36 C          59.6730   92.3146    4.0911 C.3     1  UNL1        0.0897
     37 C          61.8984   92.4496    2.7571 C.3     1  UNL1        0.0897
@<TRIPOS>BOND
     1    13    14    1
     2    14     2    1
     3     2     3   ar
     4     3     4   ar
     5     4     5   ar
     6     5     6   ar
     7     6     7   ar
     8     7     8    1
     9     7     9   ar
    10     9    10   ar
    11    10    11   ar
    12    11    12   ar
    13     1    12    1
    14     1    15    1
    15    15    16   ar
    16    16    17   ar
    17    17    18   ar
    18    18    19   ar
    19    19    20   ar
    20     1    21    1
    21    21    22    1
    22    21    33    1
    23    33    34    1
    24    34    35    1
    25    35    36    1
    26    35    37    1
    27    21    24    1
    28    24    25   ar
    29    25    26   ar
    30    26    27   ar
    31    27    28   ar
    32    28    29   ar
    33    29    30   ar
    34    30    31   ar
    35    31    32   ar
    36    12     2   ar
    37    20    15   ar
    38    32    24   ar
    39    10     4   ar
    40    31    27   ar
    41    22    23    1
@<TRIPOS>MOLECULE
*****
 37 41 0 0 0
SMALL
GASTEIGER

@<TRIPOS>ATOM
      1 C          60.1367   94.8063   -3.1090 C.3     1  UNL1        0.0760
      2 C          59.5396   94.6843   -5.6346 C.ar    1  UNL1        0.1351
      3 C          58.7083   94.1174   -6.7470 C.ar    1  UNL1        0.0366
      4 C          57.6427   93.1054   -6.4462 C.ar    1  UNL1        0.0030
      5 C          56.8114   92.5385   -7.5586 C.ar    1  UNL1        0.0006
      6 C          55.7458   91.5266   -7.2578 C.ar    1  UNL1        0.0067
      7 C          55.5115   91.0816   -5.8447 C.ar    1  UNL1        0.0346
      8 BR         54.4459   90.0696   -5.5439 Br      1  UNL1       -0.0490
      9 C          56.3428   91.6485   -4.7323 C.ar    1  UNL1        0.0067
     10 C          57.4084   92.6605   -5.0331 C.ar    1  UNL1        0.0004
     11 C          58.2398   93.2274   -3.9206 C.ar    1  UNL1       -0.0009
     12 C          59.3054   94.2394   -4.2214 C.ar    1  UNL1        0.0181
     13 C          61.6962   95.3691   -6.9115 C.3     1  UNL1        0.2525
     14 O          60.6053   95.6963   -5.9354 O.3     1  UNL1       -0.4717
     15 C          61.6335   94.7397   -3.1823 C.ar    1  UNL1       -0.0157
     16 C          62.4446   95.9994   -3.1125 C.ar    1  UNL1       -0.0039
     17 C          63.9414   95.9327   -3.1858 C.ar    1  UNL1       -0.0003
     18 C          64.6269   94.6063   -3.3288 C.ar    1  UNL1       -0.0000
     19 C          63.8157   93.3464   -3.3986 C.ar    1  UNL1       -0.0003
     20 C          62.3190   93.4131   -3.3253 C.ar    1  UNL1       -0.0039
     21 C          59.4714   95.4400   -1.9234 C.3     1  UNL1        0.1158
     22 O          58.8059   96.4342   -2.8282 O.3     1  UNL1       -0.3820
     23 H          58.5099   97.1974   -2.3078 H       1  UNL1        0.2107
     24 C          60.1369   94.4458   -1.0186 C.ar    1  UNL1        0.0026
     25 C          59.6198   93.0399   -0.9396 C.ar    1  UNL1        0.0011
     26 C          60.2853   92.0457   -0.0349 C.ar    1  UNL1        0.0372
     27 C          61.4678   92.4574    0.7910 C.ar    1  UNL1        0.1454
     28 O          62.3228   91.7031    1.7657 O.2     1  UNL1       -0.4504
     29 C          63.3683   92.6427    2.2892 C.ar    1  UNL1        0.1796
     30 C          63.1594   93.9778    1.6380 C.ar    1  UNL1        0.0437
     31 C          61.9849   93.8632    0.7121 C.ar    1  UNL1        0.0375
     32 C          61.3194   94.8574   -0.1927 C.ar    1  UNL1        0.0011
     33 C          58.8060   96.0736   -0.7377 C.3     1  UNL1        0.0491
     34 C          57.4458   96.6894   -0.8813 C.3     1  UNL1        0.0750
     35 N          56.3401   95.9200   -1.5413 N.3     1  UNL1       -0.2702
     36 C          55.4008   96.6147   -2.4820 C.3     1  UNL1        0.0897
     37 C          56.1737   94.4560   -1.2604 C.3     1  UNL1        0.0897
@<TRIPOS>BOND
     1    13    14    1
     2    14     2    1
     3     2     3   ar
     4     3     4   ar
     5     4     5   ar
     6     5     6   ar
     7     6     7   ar
     8     7     8    1
     9     7     9   ar
    10     9    10   ar
    11    10    11   ar
    12    11    12   ar
    13     1    12    1
    14     1    15    1
    15    15    16   ar
    16    16    17   ar
    17    17    18   ar
    18    18    19   ar
    19    19    20   ar
    20     1    21    1
    21    21    22    1
    22    21    33    1
    23    33    34    1
    24    34    35    1
    25    35    36    1
    26    35    37    1
    27    21    24    1
    28    24    25   ar
    29    25    26   ar
    30    26    27   ar
    31    27    28   ar
    32    28    29   ar
    33    29    30   ar
    34    30    31   ar
    35    31    32   ar
    36    12     2   ar
    37    20    15   ar
    38    32    24   ar
    39    10     4   ar
    40    31    27   ar
    41    22    23    1
@<TRIPOS>MOLECULE
*****
 37 41 0 0 0
SMALL
GASTEIGER

@<TRIPOS>ATOM
      1 C          62.1130   88.9745   11.9719 C.3     1  UNL1        0.0760
      2 C          63.6785   90.1805   13.6587 C.ar    1  UNL1        0.1351
      3 C          64.7347   91.2060   13.9461 C.ar    1  UNL1        0.0366
      4 C          65.2817   92.0513   12.8342 C.ar    1  UNL1        0.0030
      5 C          66.3379   93.0769   13.1216 C.ar    1  UNL1        0.0006
      6 C          66.8848   93.9221   12.0097 C.ar    1  UNL1        0.0067
      7 C          66.3756   93.7418   10.6104 C.ar    1  UNL1        0.0346
      8 BR         66.9226   94.5871    9.4985 Br      1  UNL1       -0.0490
      9 C          65.3194   92.7163   10.3230 C.ar    1  UNL1        0.0067
     10 C          64.7724   91.8710   11.4349 C.ar    1  UNL1        0.0004
     11 C          63.7162   90.8454   11.1474 C.ar    1  UNL1       -0.0009
     12 C          63.1692   90.0002   12.2594 C.ar    1  UNL1        0.0181
     13 C          63.2700   89.7872   16.1942 C.3     1  UNL1        0.2525
     14 O          63.1315   89.3351   14.7706 O.3     1  UNL1       -0.4717
     15 C          60.6628   89.3516   12.0417 C.ar    1  UNL1       -0.0157
     16 C          59.6712   88.4079   12.6550 C.ar    1  UNL1       -0.0039
     17 C          58.2211   88.7849   12.7248 C.ar    1  UNL1       -0.0003
     18 C          57.7625   90.1056   12.1813 C.ar    1  UNL1       -0.0000
     19 C          58.7541   91.0494   11.5680 C.ar    1  UNL1       -0.0003
     20 C          60.2043   90.6723   11.4982 C.ar    1  UNL1       -0.0039
     21 C          62.5069   87.5720   11.6148 C.3     1  UNL1        0.1158
     22 O          63.4193   87.5253   12.8044 O.3     1  UNL1       -0.3820
     23 H          64.0655   86.8112   12.6885 H       1  UNL1        0.2107
     24 C          61.5946   87.6187   10.4251 C.ar    1  UNL1        0.0026
     25 C          60.8560   86.3851    9.9974 C.ar    1  UNL1        0.0011
     26 C          59.9436   86.4318    8.8077 C.ar    1  UNL1        0.0372
     27 C          59.7698   87.7120    8.0457 C.ar    1  UNL1        0.1454
     28 O          58.9451   88.0595    6.8419 O.2     1  UNL1       -0.4504
     29 C          59.1739   89.5078    6.5255 C.ar    1  UNL1        0.1796
     30 C          60.1401   90.0554    7.5338 C.ar    1  UNL1        0.0437
     31 C          60.5083   88.9456    8.4733 C.ar    1  UNL1        0.0375
     32 C          61.4207   88.8989    9.6631 C.ar    1  UNL1        0.0011
     33 C          62.9009   86.1694   11.2576 C.3     1  UNL1        0.0491
     34 C          62.7643   85.0711   12.2700 C.3     1  UNL1        0.0750
     35 N          63.9345   84.1844   12.5771 N.3     1  UNL1       -0.2702
     36 C          64.6407   84.3041   13.8951 C.3     1  UNL1        0.0897
     37 C          64.3985   83.1780   11.5663 C.3     1  UNL1        0.0897
@<TRIPOS>BOND
     1    13    14    1
     2    14     2    1
     3     2     3   ar
     4     3     4   ar
     5     4     5   ar
     6     5     6   ar
     7     6     7   ar
     8     7     8    1
     9     7     9   ar
    10     9    10   ar
    11    10    11   ar
    12    11    12   ar
    13     1    12    1
    14     1    15    1
    15    15    16   ar
    16    16    17   ar
    17    17    18   ar
    18    18    19   ar
    19    19    20   ar
    20     1    21    1
    21    21    22    1
    22    21    33    1
    23    33    34    1
    24    34    35    1
    25    35    36    1
    26    35    37    1
    27    21    24    1
    28    24    25   ar
    29    25    26   ar
    30    26    27   ar
    31    27    28   ar
    32    28    29   ar
    33    29    30   ar
    34    30    31   ar
    35    31    32   ar
    36    12     2   ar
    37    20    15   ar
    38    32    24   ar
    39    10     4   ar
    40    31    27   ar
    41    22    23    1
@<TRIPOS>MOLECULE
*****
 37 41 0 0 0
SMALL
GASTEIGER

@<TRIPOS>ATOM
      1 C          62.2972   88.8329   11.7650 C.3     1  UNL1        0.0760
      2 C          62.3346   87.0802    9.8475 C.ar    1  UNL1        0.1351
      3 C          62.5683   85.6757    9.3757 C.ar    1  UNL1        0.0366
      4 C          62.9984   84.6191   10.3498 C.ar    1  UNL1        0.0030
      5 C          63.2321   83.2146    9.8780 C.ar    1  UNL1        0.0006
      6 C          63.6622   82.1581   10.8520 C.ar    1  UNL1        0.0067
      7 C          63.8586   82.5061   12.2978 C.ar    1  UNL1        0.0346
      8 BR         64.2888   81.4495   13.2719 Br      1  UNL1       -0.0490
      9 C          63.6249   83.9107   12.7696 C.ar    1  UNL1        0.0067
     10 C          63.1948   84.9672   11.7955 C.ar    1  UNL1        0.0004
     11 C          62.9611   86.3718   12.2673 C.ar    1  UNL1       -0.0009
     12 C          62.5310   87.4283   11.2933 C.ar    1  UNL1        0.0181
     13 C          60.4534   88.2901    8.5255 C.3     1  UNL1        0.2525
     14 O          61.9044   88.1368    8.8734 O.3     1  UNL1       -0.4717
     15 C          60.8981   89.3589   11.8903 C.ar    1  UNL1       -0.0157
     16 C          59.8529   88.5488   12.5982 C.ar    1  UNL1       -0.0039
     17 C          58.4537   89.0748   12.7235 C.ar    1  UNL1       -0.0003
     18 C          58.0998   90.4110   12.1410 C.ar    1  UNL1       -0.0000
     19 C          59.1451   91.2211   11.4330 C.ar    1  UNL1       -0.0003
     20 C          60.5442   90.6951   11.3077 C.ar    1  UNL1       -0.0039
     21 C          63.4626   89.7114   12.1114 C.3     1  UNL1        0.1158
     22 O          63.5691   90.1359   10.6767 O.3     1  UNL1       -0.3820
     23 H          64.4498   90.5086   10.5142 H       1  UNL1        0.2107
     24 C          63.3562   89.2870   13.5461 C.ar    1  UNL1        0.0026
     25 C          62.9354   90.2767   14.5918 C.ar    1  UNL1        0.0011
     26 C          62.8289   89.8523   16.0265 C.ar    1  UNL1        0.0372
     27 C          63.1432   88.4381   16.4156 C.ar    1  UNL1        0.1454
     28 O          63.1273   87.7344   17.7402 O.2     1  UNL1       -0.4504
     29 C          63.5383   86.3098   17.5132 C.ar    1  UNL1        0.1796
     30 C          63.8081   86.1330   16.0482 C.ar    1  UNL1        0.0437
     31 C          63.5640   87.4484   15.3700 C.ar    1  UNL1        0.0375
     32 C          63.6705   87.8728   13.9352 C.ar    1  UNL1        0.0011
     33 C          64.6280   90.5900   12.4578 C.3     1  UNL1        0.0491
     34 C          64.7223   91.9722   11.8827 C.3     1  UNL1        0.0750
     35 N          65.6855   92.9631   12.4662 N.3     1  UNL1       -0.2702
     36 C          66.1453   94.1332   11.6480 C.3     1  UNL1        0.0897
     37 C          66.1888   92.7840   13.8678 C.3     1  UNL1        0.0897
@<TRIPOS>BOND
     1    13    14    1
     2    14     2    1
     3     2     3   ar
     4     3     4   ar
     5     4     5   ar
     6     5     6   ar
     7     6     7   ar
     8     7     8    1
     9     7     9   ar
    10     9    10   ar
    11    10    11   ar
    12    11    12   ar
    13     1    12    1
    14     1    15    1
    15    15    16   ar
    16    16    17   ar
    17    17    18   ar
    18    18    19   ar
    19    19    20   ar
    20     1    21    1
    21    21    22    1
    22    21    33    1
    23    33    34    1
    24    34    35    1
    25    35    36    1
    26    35    37    1
    27    21    24    1
    28    24    25   ar
    29    25    26   ar
    30    26    27   ar
    31    27    28   ar
    32    28    29   ar
    33    29    30   ar
    34    30    31   ar
    35    31    32   ar
    36    12     2   ar
    37    20    15   ar
    38    32    24   ar
    39    10     4   ar
    40    31    27   ar
    41    22    23    1
@<TRIPOS>MOLECULE
*****
 37 41 0 0 0
SMALL
GASTEIGER

@<TRIPOS>ATOM
      1 C          63.4134   89.6165   13.8250 C.3     1  UNL1        0.0760
      2 C          63.8456   87.4718   15.2262 C.ar    1  UNL1        0.1351
      3 C          64.0165   85.9837   15.3044 C.ar    1  UNL1        0.0366
      4 C          63.9261   85.1519   14.0593 C.ar    1  UNL1        0.0030
      5 C          64.0970   83.6638   14.1375 C.ar    1  UNL1        0.0006
      6 C          64.0067   82.8321   12.8925 C.ar    1  UNL1        0.0067
      7 C          63.7454   83.4886   11.5693 C.ar    1  UNL1        0.0346
      8 BR         63.6551   82.6568   10.3242 Br      1  UNL1       -0.0490
      9 C          63.5745   84.9767   11.4911 C.ar    1  UNL1        0.0067
     10 C          63.6649   85.8084   12.7362 C.ar    1  UNL1        0.0004
     11 C          63.4940   87.2966   12.6581 C.ar    1  UNL1       -0.0009
     12 C          63.5843   88.1283   13.9031 C.ar    1  UNL1        0.0181
     13 C          62.9430   88.1069   17.5783 C.3     1  UNL1        0.2525
     14 O          63.9359   88.3036   16.4713 O.3     1  UNL1       -0.4717
     15 C          64.3478   90.5191   14.5749 C.ar    1  UNL1       -0.0157
     16 C          65.8076   90.5399   14.2311 C.ar    1  UNL1       -0.0039
     17 C          66.7420   91.4425   14.9810 C.ar    1  UNL1       -0.0003
     18 C          66.2164   92.3243   16.0747 C.ar    1  UNL1       -0.0000
     19 C          64.7565   92.3035   16.4186 C.ar    1  UNL1       -0.0003
     20 C          63.8221   91.4009   15.6687 C.ar    1  UNL1       -0.0039
     21 C          62.3082   90.2021   12.9970 C.3     1  UNL1        0.1158
     22 O          61.2964   89.4832   13.8391 O.3     1  UNL1       -0.3820
     23 H          60.4544   89.4326   13.3602 H       1  UNL1        0.2107
     24 C          63.3201   90.9211   12.1549 C.ar    1  UNL1        0.0026
     25 C          63.5264   90.5198   10.7243 C.ar    1  UNL1        0.0011
     26 C          64.5383   91.2387    9.8821 C.ar    1  UNL1        0.0372
     27 C          65.3438   92.3590   10.4705 C.ar    1  UNL1        0.1454
     28 O          66.4055   93.2448    9.8891 O.2     1  UNL1       -0.4504
     29 C          66.8553   94.1936   10.9602 C.ar    1  UNL1        0.1796
     30 C          66.0716   93.8942   12.2037 C.ar    1  UNL1        0.0437
     31 C          65.1375   92.7603   11.9010 C.ar    1  UNL1        0.0375
     32 C          64.1256   92.0413   12.7432 C.ar    1  UNL1        0.0011
     33 C          61.2030   90.7877   12.1690 C.3     1  UNL1        0.0491
     34 C          60.0588   89.9244   11.7271 C.3     1  UNL1        0.0750
     35 N          60.2573   88.9187   10.6319 N.3     1  UNL1       -0.2702
     36 C          60.2386   89.3581    9.1978 C.3     1  UNL1        0.0897
     37 C          60.4746   87.4738   10.9709 C.3     1  UNL1        0.0897
@<TRIPOS>BOND
     1    13    14    1
     2    14     2    1
     3     2     3   ar
     4     3     4   ar
     5     4     5   ar
     6     5     6   ar
     7     6     7   ar
     8     7     8    1
     9     7     9   ar
    10     9    10   ar
    11    10    11   ar
    12    11    12   ar
    13     1    12    1
    14     1    15    1
    15    15    16   ar
    16    16    17   ar
    17    17    18   ar
    18    18    19   ar
    19    19    20   ar
    20     1    21    1
    21    21    22    1
    22    21    33    1
    23    33    34    1
    24    34    35    1
    25    35    36    1
    26    35    37    1
    27    21    24    1
    28    24    25   ar
    29    25    26   ar
    30    26    27   ar
    31    27    28   ar
    32    28    29   ar
    33    29    30   ar
    34    30    31   ar
    35    31    32   ar
    36    12     2   ar
    37    20    15   ar
    38    32    24   ar
    39    10     4   ar
    40    31    27   ar
    41    22    23    1
@<TRIPOS>MOLECULE
*****
 37 41 0 0 0
SMALL
GASTEIGER

@<TRIPOS>ATOM
      1 C          62.0135   89.0856   11.6567 C.3     1  UNL1        0.0760
      2 C          63.8813   89.8506   13.2926 C.ar    1  UNL1        0.1351
      3 C          65.0262   90.7619   13.6224 C.ar    1  UNL1        0.0366
      4 C          65.4481   91.8197   12.6461 C.ar    1  UNL1        0.0030
      5 C          66.5929   92.7311   12.9759 C.ar    1  UNL1        0.0006
      6 C          67.0147   93.7888   11.9996 C.ar    1  UNL1        0.0067
      7 C          66.2918   93.9352   10.6935 C.ar    1  UNL1        0.0346
      8 BR         66.7137   94.9930    9.7172 Br      1  UNL1       -0.0490
      9 C          65.1470   93.0239   10.3637 C.ar    1  UNL1        0.0067
     10 C          64.7251   91.9661   11.3400 C.ar    1  UNL1        0.0004
     11 C          63.5802   91.0547   11.0102 C.ar    1  UNL1       -0.0009
     12 C          63.1584   89.9970   11.9865 C.ar    1  UNL1        0.0181
     13 C          64.4188   87.7083   14.6608 C.3     1  UNL1        0.2525
     14 O          63.4594   88.7928   14.2689 O.3     1  UNL1       -0.4717
     15 C          62.2775   87.7385   11.0520 C.ar    1  UNL1       -0.0157
     16 C          62.6270   87.6246    9.5977 C.ar    1  UNL1       -0.0039
     17 C          62.8909   86.2775    8.9930 C.ar    1  UNL1       -0.0003
     18 C          62.8054   85.0443    9.8426 C.ar    1  UNL1       -0.0000
     19 C          62.4559   85.1581   11.2969 C.ar    1  UNL1       -0.0003
     20 C          62.1919   86.5052   11.9016 C.ar    1  UNL1       -0.0039
     21 C          60.6048   89.5213   11.9316 C.3     1  UNL1        0.1158
     22 O          60.9986   89.9160   13.3240 O.3     1  UNL1       -0.3820
     23 H          60.2054   89.9793   13.8788 H       1  UNL1        0.2107
     24 C          60.2110   89.1265   10.5391 C.ar    1  UNL1        0.0026
     25 C          59.7184   87.7365   10.2646 C.ar    1  UNL1        0.0011
     26 C          59.3245   87.3417    8.8721 C.ar    1  UNL1        0.0372
     27 C          59.4232   88.3368    7.7542 C.ar    1  UNL1        0.1454
     28 O          59.1090   88.2370    6.2909 O.2     1  UNL1       -0.4504
     29 C          59.4073   89.5652    5.6610 C.ar    1  UNL1        0.1796
     30 C          59.9060   90.4860    6.7350 C.ar    1  UNL1        0.0437
     31 C          59.9158   89.7268    8.0286 C.ar    1  UNL1        0.0375
     32 C          60.3097   90.1216    9.4211 C.ar    1  UNL1        0.0011
     33 C          59.1961   89.9570   12.2065 C.3     1  UNL1        0.0491
     34 C          58.0791   88.9568   12.1603 C.3     1  UNL1        0.0750
     35 N          57.5287   88.3879   13.4344 N.3     1  UNL1       -0.2702
     36 C          58.3866   88.3333   14.6637 C.3     1  UNL1        0.0897
     37 C          56.1203   87.8735   13.4793 C.3     1  UNL1        0.0897
@<TRIPOS>BOND
     1    13    14    1
     2    14     2    1
     3     2     3   ar
     4     3     4   ar
     5     4     5   ar
     6     5     6   ar
     7     6     7   ar
     8     7     8    1
     9     7     9   ar
    10     9    10   ar
    11    10    11   ar
    12    11    12   ar
    13     1    12    1
    14     1    15    1
    15    15    16   ar
    16    16    17   ar
    17    17    18   ar
    18    18    19   ar
    19    19    20   ar
    20     1    21    1
    21    21    22    1
    22    21    33    1
    23    33    34    1
    24    34    35    1
    25    35    36    1
    26    35    37    1
    27    21    24    1
    28    24    25   ar
    29    25    26   ar
    30    26    27   ar
    31    27    28   ar
    32    28    29   ar
    33    29    30   ar
    34    30    31   ar
    35    31    32   ar
    36    12     2   ar
    37    20    15   ar
    38    32    24   ar
    39    10     4   ar
    40    31    27   ar
    41    22    23    1
@<TRIPOS>MOLECULE
*****
 37 41 0 0 0
SMALL
GASTEIGER

@<TRIPOS>ATOM
      1 C          62.8439   87.0115   12.7140 C.3     1  UNL1        0.0760
      2 C          64.0283   88.6289   14.3667 C.ar    1  UNL1        0.1351
      3 C          64.7095   89.9369   14.6406 C.ar    1  UNL1        0.0366
      4 C          64.8877   90.9356   13.5356 C.ar    1  UNL1        0.0030
      5 C          65.5689   92.2436   13.8095 C.ar    1  UNL1        0.0006
      6 C          65.7471   93.2422   12.7045 C.ar    1  UNL1        0.0067
      7 C          65.2440   92.9328   11.3257 C.ar    1  UNL1        0.0346
      8 BR         65.4222   93.9315   10.2207 Br      1  UNL1       -0.0490
      9 C          64.5628   91.6249   11.0518 C.ar    1  UNL1        0.0067
     10 C          64.3846   90.6262   12.1568 C.ar    1  UNL1        0.0004
     11 C          63.7033   89.3182   11.8829 C.ar    1  UNL1       -0.0009
     12 C          63.5252   88.3196   12.9879 C.ar    1  UNL1        0.0181
     13 C          63.1609   88.0321   16.7419 C.3     1  UNL1        0.2525
     14 O          63.8501   87.6302   15.4717 O.3     1  UNL1       -0.4717
     15 C          63.1981   85.7980   13.5214 C.ar    1  UNL1       -0.0157
     16 C          62.1792   85.1793   14.4319 C.ar    1  UNL1       -0.0039
     17 C          62.5333   83.9657   15.2393 C.ar    1  UNL1       -0.0003
     18 C          63.9064   83.3709   15.1363 C.ar    1  UNL1       -0.0000
     19 C          64.9255   83.9896   14.2258 C.ar    1  UNL1       -0.0003
     20 C          64.5713   85.2031   13.4184 C.ar    1  UNL1       -0.0039
     21 C          61.8086   86.9170   11.6328 C.3     1  UNL1        0.1158
     22 O          61.2484   88.2434   12.0534 O.3     1  UNL1       -0.3820
     23 H          60.3466   88.3374   11.7087 H       1  UNL1        0.2107
     24 C          62.3688   85.5906   11.2123 C.ar    1  UNL1        0.0026
     25 C          63.2900   85.5059   10.0315 C.ar    1  UNL1        0.0011
     26 C          63.8502   84.1796    9.6109 C.ar    1  UNL1        0.0372
     27 C          63.4892   82.9379   10.3712 C.ar    1  UNL1        0.1454
     28 O          63.8833   81.5016   10.1928 O.2     1  UNL1       -0.4504
     29 C          63.2057   80.6987   11.2633 C.ar    1  UNL1        0.1796
     30 C          62.3928   81.6387   12.1033 C.ar    1  UNL1        0.0437
     31 C          62.5681   83.0226   11.5519 C.ar    1  UNL1        0.0375
     32 C          62.0078   84.3490   11.9725 C.ar    1  UNL1        0.0011
     33 C          60.7732   86.8225   10.5516 C.3     1  UNL1        0.0491
     34 C          60.5426   87.9837    9.6305 C.3     1  UNL1        0.0750
     35 N          59.9086   87.7625    8.2891 N.3     1  UNL1       -0.2702
     36 C          59.5050   88.9368    7.4476 C.3     1  UNL1        0.0897
     37 C          59.6782   86.3672    7.7894 C.3     1  UNL1        0.0897
@<TRIPOS>BOND
     1    13    14    1
     2    14     2    1
     3     2     3   ar
     4     3     4   ar
     5     4     5   ar
     6     5     6   ar
     7     6     7   ar
     8     7     8    1
     9     7     9   ar
    10     9    10   ar
    11    10    11   ar
    12    11    12   ar
    13     1    12    1
    14     1    15    1
    15    15    16   ar
    16    16    17   ar
    17    17    18   ar
    18    18    19   ar
    19    19    20   ar
    20     1    21    1
    21    21    22    1
    22    21    33    1
    23    33    34    1
    24    34    35    1
    25    35    36    1
    26    35    37    1
    27    21    24    1
    28    24    25   ar
    29    25    26   ar
    30    26    27   ar
    31    27    28   ar
    32    28    29   ar
    33    29    30   ar
    34    30    31   ar
    35    31    32   ar
    36    12     2   ar
    37    20    15   ar
    38    32    24   ar
    39    10     4   ar
    40    31    27   ar
    41    22    23    1
@<TRIPOS>MOLECULE
*****
 37 41 0 0 0
SMALL
GASTEIGER

@<TRIPOS>ATOM
      1 C          61.1231   94.1525   -0.4157 C.3     1  UNL1        0.0760
      2 C          61.0312   95.4909   -2.6406 C.ar    1  UNL1        0.1351
      3 C          60.5098   95.6547   -4.0375 C.ar    1  UNL1        0.0366
      4 C          59.5587   94.6438   -4.6064 C.ar    1  UNL1        0.0030
      5 C          59.0372   94.8076   -6.0032 C.ar    1  UNL1        0.0006
      6 C          58.0862   93.7967   -6.5720 C.ar    1  UNL1        0.0067
      7 C          57.6566   92.6220   -5.7440 C.ar    1  UNL1        0.0346
      8 BR         56.7056   91.6111   -6.3129 Br      1  UNL1       -0.0490
      9 C          58.1781   92.4582   -4.3472 C.ar    1  UNL1        0.0067
     10 C          59.1291   93.4691   -3.7784 C.ar    1  UNL1        0.0004
     11 C          59.6506   93.3054   -2.3814 C.ar    1  UNL1       -0.0009
     12 C          60.6016   94.3163   -1.8126 C.ar    1  UNL1        0.0181
     13 C          63.2433   96.8432   -2.8089 C.3     1  UNL1        0.2525
     14 O          61.9823   96.5019   -2.0717 O.3     1  UNL1       -0.4717
     15 C          62.5482   94.4999   -0.1016 C.ar    1  UNL1       -0.0157
     16 C          62.8553   95.5609    0.9131 C.ar    1  UNL1       -0.0039
     17 C          64.2804   95.9082    1.2272 C.ar    1  UNL1       -0.0003
     18 C          65.3982   95.1946    0.5265 C.ar    1  UNL1       -0.0000
     19 C          65.0911   94.1335   -0.4883 C.ar    1  UNL1       -0.0003
     20 C          63.6660   93.7861   -0.8024 C.ar    1  UNL1       -0.0039
     21 C          60.2196   93.6414    0.6671 C.3     1  UNL1        0.1158
     22 O          61.3345   92.7877    1.1944 O.3     1  UNL1       -0.3820
     23 H          60.9673   92.0868    1.7555 H       1  UNL1        0.2107
     24 C          59.1047   94.4952    0.1398 C.ar    1  UNL1        0.0026
     25 C          59.2132   95.9902    0.1975 C.ar    1  UNL1        0.0011
     26 C          58.0984   96.8440   -0.3298 C.ar    1  UNL1        0.0372
     27 C          56.8750   96.2029   -0.9149 C.ar    1  UNL1        0.1454
     28 O          55.6246   96.7816   -1.5078 O.2     1  UNL1       -0.4504
     29 C          54.7433   95.6443   -1.9320 C.ar    1  UNL1        0.1796
     30 C          55.4491   94.3627   -1.6012 C.ar    1  UNL1        0.0437
     31 C          56.7665   94.7079   -0.9726 C.ar    1  UNL1        0.0375
     32 C          57.8814   93.8541   -0.4453 C.ar    1  UNL1        0.0011
     33 C          59.3161   93.1304    1.7498 C.3     1  UNL1        0.0491
     34 C          59.7451   93.2110    3.1849 C.3     1  UNL1        0.0750
     35 N          59.4337   92.0845    4.1252 N.3     1  UNL1       -0.2702
     36 C          58.0162   91.8255    4.5419 C.3     1  UNL1        0.0897
     37 C          60.5398   91.2171    4.6488 C.3     1  UNL1        0.0897
@<TRIPOS>BOND
     1    13    14    1
     2    14     2    1
     3     2     3   ar
     4     3     4   ar
     5     4     5   ar
     6     5     6   ar
     7     6     7   ar
     8     7     8    1
     9     7     9   ar
    10     9    10   ar
    11    10    11   ar
    12    11    12   ar
    13     1    12    1
    14     1    15    1
    15    15    16   ar
    16    16    17   ar
    17    17    18   ar
    18    18    19   ar
    19    19    20   ar
    20     1    21    1
    21    21    22    1
    22    21    33    1
    23    33    34    1
    24    34    35    1
    25    35    36    1
    26    35    37    1
    27    21    24    1
    28    24    25   ar
    29    25    26   ar
    30    26    27   ar
    31    27    28   ar
    32    28    29   ar
    33    29    30   ar
    34    30    31   ar
    35    31    32   ar
    36    12     2   ar
    37    20    15   ar
    38    32    24   ar
    39    10     4   ar
    40    31    27   ar
    41    22    23    1
