@<TRIPOS>MOLECULE
*****
 34 37 0 0 0
SMALL
GASTEIGER

@<TRIPOS>ATOM
      1 C          59.7650   93.0164    2.3324 C.ar    1  UNL1        0.0518
      2 C          58.7275   92.7262    3.3762 C.ar    1  UNL1        0.0157
      3 C          59.0759   91.8806    4.5651 C.ar    1  UNL1        0.0159
      4 C          60.4617   91.3253    4.7104 C.ar    1  UNL1        0.0506
      5 C          61.4991   91.6155    3.6666 C.ar    1  UNL1        0.0198
      6 C          61.1508   92.4611    2.4777 C.ar    1  UNL1        0.0859
      7 C          58.3716   96.3987   -2.4235 C.3     1  UNL1        0.0001
      8 C          58.7199   95.5532   -1.2345 C.3     1  UNL1        0.0034
      9 C          59.4223   96.1651   -0.0589 C.3     1  UNL1        0.0215
     10 C          59.7707   95.3195    1.1301 C.3     1  UNL1        0.0908
     11 N          59.4166   93.8620    1.1435 N.pl3   1  UNL1       -0.3075
     12 C          58.7142   93.2501   -0.0322 C.3     1  UNL1        0.0908
     13 C          58.3659   94.0956   -1.2211 C.3     1  UNL1        0.0215
     14 N          60.8100   90.4797    5.8993 N.am    1  UNL1       -0.2804
     15 C          59.7456   89.6765    6.5862 C.2     1  UNL1        0.2495
     16 O          58.3327   89.7189    6.0841 O.2     1  UNL1       -0.2698
     17 H          61.7373   90.4519    6.2289 H       1  UNL1        0.1552
     18 C          60.0939   88.8310    7.7752 C.ar    1  UNL1        0.0537
     19 C          59.7546   87.3698    7.7817 C.ar    1  UNL1        0.0042
     20 C          60.1029   86.5242    8.9706 C.ar    1  UNL1       -0.0028
     21 C          60.7906   87.1398   10.1531 C.ar    1  UNL1       -0.0061
     22 C          61.1300   88.6009   10.1466 C.ar    1  UNL1       -0.0028
     23 C          60.7816   89.4464    8.9576 C.ar    1  UNL1        0.0042
     24 C          61.1390   86.2942   11.3421 C.3     1  UNL1        0.0993
     25 N          62.2383   85.2783   11.2437 N.3     1  UNL1       -0.2646
     26 C          62.8035   84.6619   12.4889 C.3     1  UNL1        0.1049
     27 C          63.9028   83.6460   12.3905 C.3     1  UNL1        0.1595
     28 O          64.4368   83.2466   11.0469 O.3     1  UNL1       -0.3508
     29 C          63.8715   83.8631    9.8017 C.3     1  UNL1        0.1595
     30 C          62.7723   84.8789    9.9001 C.3     1  UNL1        0.1049
     31 C          62.1883   92.7513    1.4339 C.3     1  UNL1        0.4198
     32 F          63.2258   93.0415    0.3902 F       1  UNL1       -0.1658
     33 F          61.6639   91.6214    0.5983 F       1  UNL1       -0.1658
     34 F          62.7127   93.8812    2.2694 F       1  UNL1       -0.1658
@<TRIPOS>BOND
     1     7     8    1
     2     8     9    1
     3     9    10    1
     4    10    11    1
     5    11     1    1
     6     1     2   ar
     7     2     3   ar
     8     3     4   ar
     9     4    14    1
    10    14    15   am
    11    15    16    2
    12    15    18    1
    13    18    19   ar
    14    19    20   ar
    15    20    21   ar
    16    21    24    1
    17    24    25    1
    18    25    26    1
    19    26    27    1
    20    27    28    1
    21    28    29    1
    22    29    30    1
    23    21    22   ar
    24    22    23   ar
    25     4     5   ar
    26     5     6   ar
    27     6    31    1
    28    31    32    1
    29    31    33    1
    30    31    34    1
    31    11    12    1
    32    12    13    1
    33    13     8    1
    34     6     1   ar
    35    23    18   ar
    36    30    25    1
    37    14    17    1
@<TRIPOS>MOLECULE
*****
 34 37 0 0 0
SMALL
GASTEIGER

@<TRIPOS>ATOM
      1 C          62.0072   85.3143   11.1073 C.ar    1  UNL1        0.0518
      2 C          61.0507   86.3953   11.5155 C.ar    1  UNL1        0.0157
      3 C          60.7499   87.5248   10.5754 C.ar    1  UNL1        0.0159
      4 C          61.4055   87.5733    9.2272 C.ar    1  UNL1        0.0506
      5 C          62.3620   86.4923    8.8190 C.ar    1  UNL1        0.0198
      6 C          62.6629   85.3628    9.7591 C.ar    1  UNL1        0.0859
      7 C          63.2106   80.7964   14.8676 C.3     1  UNL1        0.0001
      8 C          62.9098   81.9259   13.9276 C.3     1  UNL1        0.0034
      9 C          62.5304   81.6371   12.5054 C.3     1  UNL1        0.0215
     10 C          62.2295   82.7666   11.5653 C.3     1  UNL1        0.0908
     11 N          62.3081   84.1848   12.0474 N.pl3   1  UNL1       -0.3075
     12 C          62.6875   84.4735   13.4696 C.3     1  UNL1        0.0908
     13 C          62.9883   83.3441   14.4097 C.3     1  UNL1        0.0215
     14 N          61.1047   88.7028    8.2871 N.am    1  UNL1       -0.2804
     15 C          59.9790   88.5802    7.3033 C.2     1  UNL1        0.2495
     16 O          59.1541   87.3281    7.2596 O.2     1  UNL1       -0.2698
     17 H          61.6460   89.5246    8.3158 H       1  UNL1        0.1552
     18 C          59.6782   89.7097    6.3633 C.ar    1  UNL1        0.0537
     19 C          60.7936   90.3875    5.6240 C.ar    1  UNL1        0.0042
     20 C          60.4927   91.5170    4.6839 C.ar    1  UNL1       -0.0028
     21 C          59.0765   91.9687    4.4831 C.ar    1  UNL1       -0.0061
     22 C          57.9611   91.2909    5.2224 C.ar    1  UNL1       -0.0028
     23 C          58.2620   90.1614    6.1625 C.ar    1  UNL1        0.0042
     24 C          58.7756   93.0981    3.5430 C.3     1  UNL1        0.0993
     25 N          59.7066   93.3948    2.4049 N.3     1  UNL1       -0.2646
     26 C          60.5086   94.6624    2.4028 C.3     1  UNL1        0.1049
     27 C          61.4395   94.9591    1.2646 C.3     1  UNL1        0.1595
     28 O          61.5684   93.9882    0.1286 O.3     1  UNL1       -0.3508
     29 C          60.7664   92.7205    0.1306 C.3     1  UNL1        0.1595
     30 C          59.8355   92.4239    1.2688 C.3     1  UNL1        0.1049
     31 C          63.6194   84.2819    9.3509 C.3     1  UNL1        0.4198
     32 F          64.5759   83.2009    8.9427 F       1  UNL1       -0.1658
     33 F          64.3408   84.4265   10.6580 F       1  UNL1       -0.1658
     34 F          62.8980   84.1372    8.0438 F       1  UNL1       -0.1658
@<TRIPOS>BOND
     1     7     8    1
     2     8     9    1
     3     9    10    1
     4    10    11    1
     5    11     1    1
     6     1     2   ar
     7     2     3   ar
     8     3     4   ar
     9     4    14    1
    10    14    15   am
    11    15    16    2
    12    15    18    1
    13    18    19   ar
    14    19    20   ar
    15    20    21   ar
    16    21    24    1
    17    24    25    1
    18    25    26    1
    19    26    27    1
    20    27    28    1
    21    28    29    1
    22    29    30    1
    23    21    22   ar
    24    22    23   ar
    25     4     5   ar
    26     5     6   ar
    27     6    31    1
    28    31    32    1
    29    31    33    1
    30    31    34    1
    31    11    12    1
    32    12    13    1
    33    13     8    1
    34     6     1   ar
    35    23    18   ar
    36    30    25    1
    37    14    17    1
@<TRIPOS>MOLECULE
*****
 34 37 0 0 0
SMALL
GASTEIGER

@<TRIPOS>ATOM
      1 C          61.7526   93.5993    0.7257 C.ar    1  UNL1        0.0518
      2 C          62.9985   93.1094    1.4021 C.ar    1  UNL1        0.0157
      3 C          62.8995   92.2968    2.6590 C.ar    1  UNL1        0.0159
      4 C          61.5546   91.9742    3.2396 C.ar    1  UNL1        0.0506
      5 C          60.3087   92.4641    2.5632 C.ar    1  UNL1        0.0198
      6 C          60.4077   93.2767    1.3063 C.ar    1  UNL1        0.0859
      7 C          62.1484   96.8497   -4.3020 C.3     1  UNL1        0.0001
      8 C          62.0495   96.0371   -3.0451 C.3     1  UNL1        0.0034
      9 C          61.8080   94.5589   -3.1248 C.3     1  UNL1        0.0215
     10 C          61.7090   93.7463   -1.8678 C.3     1  UNL1        0.0908
     11 N          61.8515   94.4119   -0.5312 N.pl3   1  UNL1       -0.3075
     12 C          62.0930   95.8902   -0.4516 C.3     1  UNL1        0.0908
     13 C          62.1920   96.7028   -1.7085 C.3     1  UNL1        0.0215
     14 N          61.4557   91.1616    4.4965 N.am    1  UNL1       -0.2804
     15 C          60.1128   90.8730    5.0992 C.2     1  UNL1        0.2495
     16 O          58.8688   91.3969    4.4450 O.2     1  UNL1       -0.2698
     17 H          62.2721   90.8177    4.9259 H       1  UNL1        0.1552
     18 C          60.0138   90.0604    6.3562 C.ar    1  UNL1        0.0537
     19 C          59.2099   88.7940    6.3692 C.ar    1  UNL1        0.0042
     20 C          59.1109   87.9814    7.6262 C.ar    1  UNL1       -0.0028
     21 C          59.8159   88.4352    8.8701 C.ar    1  UNL1       -0.0061
     22 C          60.6197   89.7015    8.8570 C.ar    1  UNL1       -0.0028
     23 C          60.7187   90.5141    7.6000 C.ar    1  UNL1        0.0042
     24 C          59.7169   87.6226   10.1270 C.3     1  UNL1        0.0993
     25 N          60.9433   87.3630   10.9508 N.3     1  UNL1       -0.2646
     26 C          61.3824   85.9541   11.2189 C.3     1  UNL1        0.1049
     27 C          62.6089   85.6945   12.0427 C.3     1  UNL1        0.1595
     28 O          63.3961   86.8441   12.5984 O.3     1  UNL1       -0.3508
     29 C          62.9570   88.2531   12.3303 C.3     1  UNL1        0.1595
     30 C          61.7306   88.5126   11.5065 C.3     1  UNL1        0.1049
     31 C          59.1616   93.7667    0.6299 C.3     1  UNL1        0.4198
     32 F          57.9157   94.2567   -0.0464 F       1  UNL1       -0.1658
     33 F          58.9985   92.4327   -0.0361 F       1  UNL1       -0.1658
     34 F          59.3247   95.1008    1.2960 F       1  UNL1       -0.1658
@<TRIPOS>BOND
     1     7     8    1
     2     8     9    1
     3     9    10    1
     4    10    11    1
     5    11     1    1
     6     1     2   ar
     7     2     3   ar
     8     3     4   ar
     9     4    14    1
    10    14    15   am
    11    15    16    2
    12    15    18    1
    13    18    19   ar
    14    19    20   ar
    15    20    21   ar
    16    21    24    1
    17    24    25    1
    18    25    26    1
    19    26    27    1
    20    27    28    1
    21    28    29    1
    22    29    30    1
    23    21    22   ar
    24    22    23   ar
    25     4     5   ar
    26     5     6   ar
    27     6    31    1
    28    31    32    1
    29    31    33    1
    30    31    34    1
    31    11    12    1
    32    12    13    1
    33    13     8    1
    34     6     1   ar
    35    23    18   ar
    36    30    25    1
    37    14    17    1
@<TRIPOS>MOLECULE
*****
 34 37 0 0 0
SMALL
GASTEIGER

@<TRIPOS>ATOM
      1 C          62.3886   83.3076   14.0552 C.ar    1  UNL1        0.0518
      2 C          62.2922   84.2071   15.2517 C.ar    1  UNL1        0.0157
      3 C          62.9343   85.5625   15.2247 C.ar    1  UNL1        0.0159
      4 C          63.6728   86.0183   14.0014 C.ar    1  UNL1        0.0506
      5 C          63.7692   85.1188   12.8049 C.ar    1  UNL1        0.0198
      6 C          63.1271   83.7635   12.8318 C.ar    1  UNL1        0.0859
      7 C          59.8201   77.8863   14.1628 C.3     1  UNL1        0.0001
      8 C          60.4622   79.2416   14.1359 C.3     1  UNL1        0.0034
      9 C          59.6145   80.4752   14.2336 C.3     1  UNL1        0.0215
     10 C          60.2566   81.8306   14.2067 C.3     1  UNL1        0.0908
     11 N          61.7465   81.9523   14.0821 N.pl3   1  UNL1       -0.3075
     12 C          62.5941   80.7187   13.9844 C.3     1  UNL1        0.0908
     13 C          61.9520   79.3633   14.0113 C.3     1  UNL1        0.0215
     14 N          64.3150   87.3737   13.9744 N.am    1  UNL1       -0.2804
     15 C          63.6971   88.4805   13.1726 C.2     1  UNL1        0.2495
     16 O          62.4370   88.2321   12.3975 O.2     1  UNL1       -0.2698
     17 H          65.1419   87.5367   14.4831 H       1  UNL1        0.1552
     18 C          64.3392   89.8358   13.1456 C.ar    1  UNL1        0.0537
     19 C          65.2779   90.2429   14.2426 C.ar    1  UNL1        0.0042
     20 C          65.9201   91.5983   14.2157 C.ar    1  UNL1       -0.0028
     21 C          65.6235   92.5465   13.0918 C.ar    1  UNL1       -0.0061
     22 C          64.6848   92.1394   11.9950 C.ar    1  UNL1       -0.0028
     23 C          64.0427   90.7841   12.0219 C.ar    1  UNL1        0.0042
     24 C          66.2656   93.9019   13.0649 C.3     1  UNL1        0.0993
     25 N          66.5944   94.5501   11.7527 N.3     1  UNL1       -0.2646
     26 C          67.2732   93.7587   10.6744 C.3     1  UNL1        0.1049
     27 C          67.6020   94.4069    9.3622 C.3     1  UNL1        0.1595
     28 O          67.2518   95.8466    9.1284 O.3     1  UNL1       -0.3508
     29 C          66.5730   96.6380   10.2068 C.3     1  UNL1        0.1595
     30 C          66.2442   95.9898   11.5189 C.3     1  UNL1        0.1049
     31 C          63.2235   82.8640   11.6352 C.3     1  UNL1        0.4198
     32 F          63.3199   81.9646   10.4387 F       1  UNL1       -0.1658
     33 F          64.5941   82.4349   12.0682 F       1  UNL1       -0.1658
     34 F          61.8530   83.2931   11.2023 F       1  UNL1       -0.1658
@<TRIPOS>BOND
     1     7     8    1
     2     8     9    1
     3     9    10    1
     4    10    11    1
     5    11     1    1
     6     1     2   ar
     7     2     3   ar
     8     3     4   ar
     9     4    14    1
    10    14    15   am
    11    15    16    2
    12    15    18    1
    13    18    19   ar
    14    19    20   ar
    15    20    21   ar
    16    21    24    1
    17    24    25    1
    18    25    26    1
    19    26    27    1
    20    27    28    1
    21    28    29    1
    22    29    30    1
    23    21    22   ar
    24    22    23   ar
    25     4     5   ar
    26     5     6   ar
    27     6    31    1
    28    31    32    1
    29    31    33    1
    30    31    34    1
    31    11    12    1
    32    12    13    1
    33    13     8    1
    34     6     1   ar
    35    23    18   ar
    36    30    25    1
    37    14    17    1
@<TRIPOS>MOLECULE
*****
 34 37 0 0 0
SMALL
GASTEIGER

@<TRIPOS>ATOM
      1 C          61.4452   93.5522    0.7202 C.ar    1  UNL1        0.0518
      2 C          60.1677   92.8746    1.1188 C.ar    1  UNL1        0.0157
      3 C          60.1155   92.0487    2.3699 C.ar    1  UNL1        0.0159
      4 C          61.3407   91.9003    3.2223 C.ar    1  UNL1        0.0506
      5 C          62.6182   92.5779    2.8237 C.ar    1  UNL1        0.0198
      6 C          62.6704   93.4038    1.5727 C.ar    1  UNL1        0.0859
      7 C          61.6541   96.8559   -4.2839 C.3     1  UNL1        0.0001
      8 C          61.6018   96.0300   -3.0329 C.3     1  UNL1        0.0034
      9 C          61.2388   96.6704   -1.7260 C.3     1  UNL1        0.0215
     10 C          61.1865   95.8445   -0.4750 C.3     1  UNL1        0.0908
     11 N          61.4974   94.3781   -0.5308 N.pl3   1  UNL1       -0.3075
     12 C          61.8605   93.7377   -1.8377 C.3     1  UNL1        0.0908
     13 C          61.9127   94.5637   -3.0887 C.3     1  UNL1        0.0215
     14 N          61.2885   91.0744    4.4734 N.am    1  UNL1       -0.2804
     15 C          59.9899   90.9007    5.2037 C.2     1  UNL1        0.2495
     16 O          58.7434   91.5528    4.6830 O.2     1  UNL1       -0.2698
     17 H          62.1066   90.6464    4.8151 H       1  UNL1        0.1552
     18 C          59.9377   90.0747    6.4547 C.ar    1  UNL1        0.0537
     19 C          59.2092   88.7635    6.4579 C.ar    1  UNL1        0.0042
     20 C          59.1569   87.9375    7.7090 C.ar    1  UNL1       -0.0028
     21 C          59.8332   88.4229    8.9568 C.ar    1  UNL1       -0.0061
     22 C          60.5617   89.7341    8.9536 C.ar    1  UNL1       -0.0028
     23 C          60.6139   90.5600    7.7026 C.ar    1  UNL1        0.0042
     24 C          59.7810   87.5969   10.2079 C.3     1  UNL1        0.0993
     25 N          61.0193   87.4058   11.0326 N.3     1  UNL1       -0.2646
     26 C          61.5141   86.0221   11.3331 C.3     1  UNL1        0.1049
     27 C          62.7525   85.8309   12.1579 C.3     1  UNL1        0.1595
     28 O          63.4959   87.0236   12.6821 O.3     1  UNL1       -0.3508
     29 C          63.0010   88.4074   12.3816 C.3     1  UNL1        0.1595
     30 C          61.7627   88.5985   11.5569 C.3     1  UNL1        0.1049
     31 C          63.9480   94.0814    1.1741 C.3     1  UNL1        0.4198
     32 F          65.2255   94.7589    0.7755 F       1  UNL1       -0.1658
     33 F          63.5089   95.3274    1.8846 F       1  UNL1       -0.1658
     34 F          64.3871   92.8355    0.4637 F       1  UNL1       -0.1658
@<TRIPOS>BOND
     1     7     8    1
     2     8     9    1
     3     9    10    1
     4    10    11    1
     5    11     1    1
     6     1     2   ar
     7     2     3   ar
     8     3     4   ar
     9     4    14    1
    10    14    15   am
    11    15    16    2
    12    15    18    1
    13    18    19   ar
    14    19    20   ar
    15    20    21   ar
    16    21    24    1
    17    24    25    1
    18    25    26    1
    19    26    27    1
    20    27    28    1
    21    28    29    1
    22    29    30    1
    23    21    22   ar
    24    22    23   ar
    25     4     5   ar
    26     5     6   ar
    27     6    31    1
    28    31    32    1
    29    31    33    1
    30    31    34    1
    31    11    12    1
    32    12    13    1
    33    13     8    1
    34     6     1   ar
    35    23    18   ar
    36    30    25    1
    37    14    17    1
