@<TRIPOS>MOLECULE
*****
 42 46 0 0 0
SMALL
GASTEIGER

@<TRIPOS>ATOM
      1 C          62.7781   87.0093   11.4737 C.3     1  UNL1        0.0373
      2 C          63.0558   88.0677   12.4996 C.3     1  UNL1        0.0075
      3 C          63.6289   87.6880   13.8328 C.3     1  UNL1        0.0219
      4 C          63.9243   86.2498   14.1400 C.3     1  UNL1        0.0937
      5 N          63.6466   85.1914   13.1140 N.am    1  UNL1       -0.2758
      6 C          63.9420   83.7532   13.4212 C.2     1  UNL1        0.2490
      7 O          64.5151   83.3735   14.7545 O.2     1  UNL1       -0.2699
      8 C          63.0735   85.5711   11.7809 C.3     1  UNL1        0.0976
      9 C          62.3456   86.3738   10.1857 C.ar    1  UNL1       -0.0203
     10 C          63.2657   85.4310    9.4684 C.ar    1  UNL1       -0.0033
     11 C          62.8332   84.7954    8.1804 C.ar    1  UNL1        0.0119
     12 C          61.4804   85.1027    7.6096 C.ar    1  UNL1        0.0682
     13 CL         61.0478   84.4671    6.3215 Cl      1  UNL1       -0.0814
     14 C          60.5602   86.0455    8.3268 C.ar    1  UNL1        0.0679
     15 CL         59.2076   86.3527    7.7561 Cl      1  UNL1       -0.0814
     16 C          60.9928   86.6810    9.6149 C.ar    1  UNL1        0.0080
     17 C          63.6642   82.6948   12.3953 C.ar    1  UNL1        0.0536
     18 C          64.2688   82.8000   11.0265 C.ar    1  UNL1        0.0045
     19 C          63.9911   81.7415   10.0006 C.ar    1  UNL1        0.0001
     20 C          63.1088   80.5779   10.3434 C.ar    1  UNL1        0.0000
     21 C          62.5043   80.4726   11.7121 C.ar    1  UNL1        0.0001
     22 C          62.7820   81.5311   12.7381 C.ar    1  UNL1        0.0045
     23 C          62.3325   88.2268   10.7191 C.3     1  UNL1        0.0071
     24 C          61.3158   89.1514   11.3205 C.3     1  UNL1        0.0177
     25 C          61.5310   90.6352   11.2738 C.3     1  UNL1        0.0721
     26 C          65.6687   92.3259   11.7942 C.3     1  UNL1        0.0819
     27 C          64.9285   91.7770   12.9777 C.3     1  UNL1        0.0398
     28 C          63.5493   91.2134   12.8043 C.3     1  UNL1        0.0741
     29 N          62.9103   91.1987   11.4473 N.3     1  UNL1       -0.2725
     30 C          63.6504   91.7476   10.2638 C.3     1  UNL1        0.0741
     31 C          65.0297   92.3112   10.4372 C.3     1  UNL1        0.0398
     32 C          66.6877   92.5593   12.8700 C.ar    1  UNL1       -0.0060
     33 C          66.4755   93.6470   13.8808 C.ar    1  UNL1       -0.0027
     34 C          67.4945   93.8805   14.9564 C.ar    1  UNL1       -0.0003
     35 C          68.7258   93.0262   15.0212 C.ar    1  UNL1       -0.0000
     36 C          68.9380   91.9385   14.0104 C.ar    1  UNL1       -0.0003
     37 C          67.9190   91.7051   12.9348 C.ar    1  UNL1       -0.0027
     38 C          67.7817   95.0402    9.8148 C.3     1  UNL1        0.0948
     39 C          66.6876   94.4102   10.6248 C.2     1  UNL1        0.2263
     40 O          65.5182   95.2346   11.0753 O.2     1  UNL1       -0.2748
     41 N          66.7628   92.9559   10.9843 N.am    1  UNL1       -0.2774
     42 C          67.9322   92.1315   10.5338 C.3     1  UNL1        0.1150
@<TRIPOS>BOND
     1    38    39    1
     2    39    40    2
     3    39    41   am
     4    41    42    1
     5    41    26    1
     6    26    32    1
     7    32    33   ar
     8    33    34   ar
     9    34    35   ar
    10    35    36   ar
    11    36    37   ar
    12    26    27    1
    13    27    28    1
    14    28    29    1
    15    29    25    1
    16    25    24    1
    17    24    23    1
    18     1    23    1
    19     1     9    1
    20     9    10   ar
    21    10    11   ar
    22    11    12   ar
    23    12    13    1
    24    12    14   ar
    25    14    15    1
    26    14    16   ar
    27     1     2    1
    28     2     3    1
    29     3     4    1
    30     4     5    1
    31     5     6   am
    32     6     7    2
    33     6    17    1
    34    17    18   ar
    35    18    19   ar
    36    19    20   ar
    37    20    21   ar
    38    21    22   ar
    39     5     8    1
    40    29    30    1
    41    30    31    1
    42    31    26    1
    43    37    32   ar
    44     8     1    1
    45    16     9   ar
    46    22    17   ar
@<TRIPOS>MOLECULE
*****
 42 46 0 0 0
SMALL
GASTEIGER

@<TRIPOS>ATOM
      1 C          63.0168   86.6686   12.0338 C.3     1  UNL1        0.0373
      2 C          63.3363   87.6126   13.1549 C.3     1  UNL1        0.0075
      3 C          63.8528   87.0809   14.4590 C.3     1  UNL1        0.0219
      4 C          64.0498   85.6052   14.6419 C.3     1  UNL1        0.0937
      5 N          63.7303   84.6612   13.5208 N.am    1  UNL1       -0.2758
      6 C          63.9273   83.1855   13.7037 C.2     1  UNL1        0.2490
      7 O          64.4438   82.6537   15.0078 O.2     1  UNL1       -0.2699
      8 C          63.2138   85.1929   12.2168 C.3     1  UNL1        0.0976
      9 C          62.5757   86.1781   10.6867 C.ar    1  UNL1       -0.0203
     10 C          63.4693   85.2771    9.8870 C.ar    1  UNL1       -0.0033
     11 C          63.0282   84.7865    8.5399 C.ar    1  UNL1        0.0119
     12 C          61.6932   85.1970    7.9924 C.ar    1  UNL1        0.0682
     13 CL         61.2520   84.7065    6.6453 Cl      1  UNL1       -0.0814
     14 C          60.7995   86.0980    8.7921 C.ar    1  UNL1        0.0679
     15 CL         59.4647   86.5085    8.2448 Cl      1  UNL1       -0.0814
     16 C          61.2407   86.5885   10.1393 C.ar    1  UNL1        0.0080
     17 C          63.6078   82.2415   12.5826 C.ar    1  UNL1        0.0536
     18 C          64.1372   82.5072   11.2045 C.ar    1  UNL1        0.0045
     19 C          63.8178   81.5632   10.0834 C.ar    1  UNL1        0.0001
     20 C          62.9689   80.3536   10.3404 C.ar    1  UNL1        0.0000
     21 C          62.4395   80.0878   11.7185 C.ar    1  UNL1        0.0001
     22 C          62.7589   81.0318   12.8396 C.ar    1  UNL1        0.0045
     23 C          62.6666   87.9740   11.3831 C.3     1  UNL1        0.0071
     24 C          61.5063   88.7777   11.8910 C.3     1  UNL1        0.0177
     25 C          61.6872   90.2297   12.2215 C.3     1  UNL1        0.0721
     26 C          65.7697   92.1046   11.9619 C.3     1  UNL1        0.0819
     27 C          64.8295   92.1906   10.7964 C.3     1  UNL1        0.0398
     28 C          63.4686   91.5656   10.8829 C.3     1  UNL1        0.0741
     29 N          63.0480   90.8546   12.1350 N.3     1  UNL1       -0.2725
     30 C          63.9883   90.7686   13.3005 C.3     1  UNL1        0.0741
     31 C          65.3491   91.3936   13.2140 C.3     1  UNL1        0.0398
     32 C          66.6194   92.8791   10.9984 C.ar    1  UNL1       -0.0060
     33 C          67.5914   92.1606   10.1103 C.ar    1  UNL1       -0.0027
     34 C          68.4410   92.9351    9.1469 C.ar    1  UNL1       -0.0003
     35 C          68.3186   94.4282    9.0716 C.ar    1  UNL1       -0.0000
     36 C          67.3466   95.1468    9.9597 C.ar    1  UNL1       -0.0003
     37 C          66.4970   94.3722   10.9231 C.ar    1  UNL1       -0.0027
     38 C          68.2279   93.4160   14.7882 C.3     1  UNL1        0.0948
     39 C          66.9925   93.2330   13.9573 C.2     1  UNL1        0.2263
     40 O          65.7446   93.9955   14.2908 O.2     1  UNL1       -0.2748
     41 N          67.0051   92.2875   12.7929 N.am    1  UNL1       -0.2774
     42 C          68.2530   91.5250   12.4594 C.3     1  UNL1        0.1150
@<TRIPOS>BOND
     1    38    39    1
     2    39    40    2
     3    39    41   am
     4    41    42    1
     5    41    26    1
     6    26    32    1
     7    32    33   ar
     8    33    34   ar
     9    34    35   ar
    10    35    36   ar
    11    36    37   ar
    12    26    27    1
    13    27    28    1
    14    28    29    1
    15    29    25    1
    16    25    24    1
    17    24    23    1
    18     1    23    1
    19     1     9    1
    20     9    10   ar
    21    10    11   ar
    22    11    12   ar
    23    12    13    1
    24    12    14   ar
    25    14    15    1
    26    14    16   ar
    27     1     2    1
    28     2     3    1
    29     3     4    1
    30     4     5    1
    31     5     6   am
    32     6     7    2
    33     6    17    1
    34    17    18   ar
    35    18    19   ar
    36    19    20   ar
    37    20    21   ar
    38    21    22   ar
    39     5     8    1
    40    29    30    1
    41    30    31    1
    42    31    26    1
    43    37    32   ar
    44     8     1    1
    45    16     9   ar
    46    22    17   ar
@<TRIPOS>MOLECULE
*****
 42 46 0 0 0
SMALL
GASTEIGER

@<TRIPOS>ATOM
      1 C          64.0577   90.7188   14.2891 C.3     1  UNL1        0.0373
      2 C          62.7999   89.9054   14.3666 C.3     1  UNL1        0.0075
      3 C          61.9423   89.7323   13.1480 C.3     1  UNL1        0.0219
      4 C          62.3427   90.3727   11.8521 C.3     1  UNL1        0.0937
      5 N          63.6006   91.1862   11.7747 N.am    1  UNL1       -0.2758
      6 C          64.0010   91.8267   10.4787 C.2     1  UNL1        0.2490
      7 O          63.1435   91.6536    9.2602 O.2     1  UNL1       -0.2699
      8 C          64.4581   91.3593   12.9931 C.3     1  UNL1        0.0976
      9 C          65.3299   91.3909   14.7129 C.ar    1  UNL1       -0.0203
     10 C          65.3896   92.1299   16.0168 C.ar    1  UNL1       -0.0033
     11 C          66.6618   92.8020   16.4406 C.ar    1  UNL1        0.0119
     12 C          67.8746   92.7351   15.5604 C.ar    1  UNL1        0.0682
     13 CL         69.1469   93.4072   15.9841 Cl      1  UNL1       -0.0814
     14 C          67.8151   91.9961   14.2564 C.ar    1  UNL1        0.0679
     15 CL         69.0278   91.9291   13.3762 Cl      1  UNL1       -0.0814
     16 C          66.5428   91.3240   13.8327 C.ar    1  UNL1        0.0080
     17 C          65.2588   92.6402   10.4012 C.ar    1  UNL1        0.0536
     18 C          66.5594   91.9789   10.0527 C.ar    1  UNL1        0.0045
     19 C          67.8173   92.7924    9.9753 C.ar    1  UNL1        0.0001
     20 C          67.7746   94.2671   10.2463 C.ar    1  UNL1        0.0000
     21 C          66.4741   94.9283   10.5947 C.ar    1  UNL1        0.0001
     22 C          65.2162   94.1149   10.6722 C.ar    1  UNL1        0.0045
     23 C          64.0991   90.3118   15.7323 C.3     1  UNL1        0.0071
     24 C          63.0800   89.3514   16.2701 C.3     1  UNL1        0.0177
     25 C          63.5095   88.0032   16.7682 C.3     1  UNL1        0.0721
     26 C          63.4361   84.4546   14.0022 C.3     1  UNL1        0.0819
     27 C          62.8992   84.3293   15.3971 C.3     1  UNL1        0.0398
     28 C          62.9236   85.5122   16.3191 C.3     1  UNL1        0.0741
     29 N          63.4850   86.8204   15.8462 N.3     1  UNL1       -0.2725
     30 C          64.0220   86.9456   14.4512 C.3     1  UNL1        0.0741
     31 C          63.9975   85.7627   13.5292 C.3     1  UNL1        0.0398
     32 C          63.0098   83.0164   13.9890 C.ar    1  UNL1       -0.0060
     33 C          61.5586   82.6631   14.1273 C.ar    1  UNL1       -0.0027
     34 C          61.1323   81.2250   14.1142 C.ar    1  UNL1       -0.0003
     35 C          62.1573   80.1403   13.9628 C.ar    1  UNL1       -0.0000
     36 C          63.6084   80.4936   13.8245 C.ar    1  UNL1       -0.0003
     37 C          64.0347   81.9317   13.8376 C.ar    1  UNL1       -0.0027
     38 C          63.3451   84.1112   10.0494 C.3     1  UNL1        0.0948
     39 C          62.9562   84.4855   11.4490 C.2     1  UNL1        0.2263
     40 O          61.6984   85.2649   11.6949 O.2     1  UNL1       -0.2748
     41 N          63.8250   84.0803   12.6026 N.am    1  UNL1       -0.2774
     42 C          65.0828   83.3009   12.3567 C.3     1  UNL1        0.1150
@<TRIPOS>BOND
     1    38    39    1
     2    39    40    2
     3    39    41   am
     4    41    42    1
     5    41    26    1
     6    26    32    1
     7    32    33   ar
     8    33    34   ar
     9    34    35   ar
    10    35    36   ar
    11    36    37   ar
    12    26    27    1
    13    27    28    1
    14    28    29    1
    15    29    25    1
    16    25    24    1
    17    24    23    1
    18     1    23    1
    19     1     9    1
    20     9    10   ar
    21    10    11   ar
    22    11    12   ar
    23    12    13    1
    24    12    14   ar
    25    14    15    1
    26    14    16   ar
    27     1     2    1
    28     2     3    1
    29     3     4    1
    30     4     5    1
    31     5     6   am
    32     6     7    2
    33     6    17    1
    34    17    18   ar
    35    18    19   ar
    36    19    20   ar
    37    20    21   ar
    38    21    22   ar
    39     5     8    1
    40    29    30    1
    41    30    31    1
    42    31    26    1
    43    37    32   ar
    44     8     1    1
    45    16     9   ar
    46    22    17   ar
@<TRIPOS>MOLECULE
*****
 42 46 0 0 0
SMALL
GASTEIGER

@<TRIPOS>ATOM
      1 C          64.0739   90.7329   14.2999 C.3     1  UNL1        0.0373
      2 C          62.8099   89.9301   14.3875 C.3     1  UNL1        0.0075
      3 C          61.9422   89.7627   13.1754 C.3     1  UNL1        0.0219
      4 C          62.3386   90.3980   11.8757 C.3     1  UNL1        0.0937
      5 N          63.6028   91.2007   11.7881 N.am    1  UNL1       -0.2758
      6 C          63.9992   91.8360   10.4884 C.2     1  UNL1        0.2490
      7 O          63.1315   91.6686    9.2763 O.2     1  UNL1       -0.2699
      8 C          64.4704   91.3682   13.0002 C.3     1  UNL1        0.0976
      9 C          65.3548   91.3948   14.7136 C.ar    1  UNL1       -0.0203
     10 C          65.4279   92.1411   16.0127 C.ar    1  UNL1       -0.0033
     11 C          66.7088   92.8030   16.4264 C.ar    1  UNL1        0.0119
     12 C          67.9167   92.7186   15.5410 C.ar    1  UNL1        0.0682
     13 CL         69.1977   93.3804   15.9546 Cl      1  UNL1       -0.0814
     14 C          67.8437   91.9722   14.2419 C.ar    1  UNL1        0.0679
     15 CL         69.0515   91.8878   13.3565 Cl      1  UNL1       -0.0814
     16 C          66.5627   91.3103   13.8282 C.ar    1  UNL1        0.0080
     17 C          65.2633   92.6387   10.4008 C.ar    1  UNL1        0.0536
     18 C          66.5576   91.9643   10.0542 C.ar    1  UNL1        0.0045
     19 C          67.8216   92.7670    9.9666 C.ar    1  UNL1        0.0001
     20 C          67.7915   94.2442   10.2256 C.ar    1  UNL1        0.0000
     21 C          66.4974   94.9186   10.5721 C.ar    1  UNL1        0.0001
     22 C          65.2332   94.1159   10.6598 C.ar    1  UNL1        0.0045
     23 C          64.1223   90.3274   15.7433 C.3     1  UNL1        0.0071
     24 C          63.1419   89.3234   16.2735 C.3     1  UNL1        0.0177
     25 C          63.6055   87.9456   16.6433 C.3     1  UNL1        0.0721
     26 C          63.2103   84.5712   13.6925 C.3     1  UNL1        0.0819
     27 C          63.7009   85.9131   13.2360 C.3     1  UNL1        0.0398
     28 C          63.8327   87.0379   14.2195 C.3     1  UNL1        0.0741
     29 N          63.4738   86.8207   15.6597 N.3     1  UNL1       -0.2725
     30 C          62.9832   85.4788   16.1163 C.3     1  UNL1        0.0741
     31 C          62.8514   84.3540   15.1327 C.3     1  UNL1        0.0398
     32 C          63.4247   84.2881   12.2351 C.ar    1  UNL1       -0.0060
     33 C          62.6897   85.0869   11.1999 C.ar    1  UNL1       -0.0027
     34 C          62.9041   84.8038    9.7426 C.ar    1  UNL1       -0.0003
     35 C          63.8534   83.7219    9.3205 C.ar    1  UNL1       -0.0000
     36 C          64.5884   82.9231   10.3557 C.ar    1  UNL1       -0.0003
     37 C          64.3740   83.2062   11.8130 C.ar    1  UNL1       -0.0027
     38 C          63.1409   80.6621   14.3744 C.3     1  UNL1        0.0948
     39 C          63.5571   82.1024   14.4240 C.2     1  UNL1        0.2263
     40 O          64.7363   82.5141   15.2546 O.2     1  UNL1       -0.2748
     41 N          62.7941   83.1309   13.6430 N.am    1  UNL1       -0.2774
     42 C          61.6149   82.7192   12.8124 C.3     1  UNL1        0.1150
@<TRIPOS>BOND
     1    38    39    1
     2    39    40    2
     3    39    41   am
     4    41    42    1
     5    41    26    1
     6    26    32    1
     7    32    33   ar
     8    33    34   ar
     9    34    35   ar
    10    35    36   ar
    11    36    37   ar
    12    26    27    1
    13    27    28    1
    14    28    29    1
    15    29    25    1
    16    25    24    1
    17    24    23    1
    18     1    23    1
    19     1     9    1
    20     9    10   ar
    21    10    11   ar
    22    11    12   ar
    23    12    13    1
    24    12    14   ar
    25    14    15    1
    26    14    16   ar
    27     1     2    1
    28     2     3    1
    29     3     4    1
    30     4     5    1
    31     5     6   am
    32     6     7    2
    33     6    17    1
    34    17    18   ar
    35    18    19   ar
    36    19    20   ar
    37    20    21   ar
    38    21    22   ar
    39     5     8    1
    40    29    30    1
    41    30    31    1
    42    31    26    1
    43    37    32   ar
    44     8     1    1
    45    16     9   ar
    46    22    17   ar
@<TRIPOS>MOLECULE
*****
 42 46 0 0 0
SMALL
GASTEIGER

@<TRIPOS>ATOM
      1 C          63.4437   90.6086   11.9647 C.3     1  UNL1        0.0373
      2 C          63.0519   90.9183   10.5503 C.3     1  UNL1        0.0075
      3 C          63.7828   91.9816    9.7852 C.3     1  UNL1        0.0219
      4 C          64.9055   92.7351   10.4347 C.3     1  UNL1        0.0937
      5 N          65.2973   92.4254   11.8491 N.am    1  UNL1       -0.2758
      6 C          66.4199   93.1789   12.4985 C.2     1  UNL1        0.2490
      7 O          67.1508   94.2423   11.7335 O.2     1  UNL1       -0.2699
      8 C          64.5664   91.3621   12.6141 C.3     1  UNL1        0.0976
      9 C          63.4458   89.9587   13.3166 C.ar    1  UNL1       -0.0203
     10 C          62.7112   90.5982   14.4573 C.ar    1  UNL1       -0.0033
     11 C          62.7132   89.9483   15.8093 C.ar    1  UNL1        0.0119
     12 C          63.4501   88.6589   16.0205 C.ar    1  UNL1        0.0682
     13 CL         63.4522   88.0090   17.3723 Cl      1  UNL1       -0.0814
     14 C          64.1848   88.0194   14.8797 C.ar    1  UNL1        0.0679
     15 CL         64.9215   86.7300   15.0908 Cl      1  UNL1       -0.0814
     16 C          64.1826   88.6693   13.5278 C.ar    1  UNL1        0.0080
     17 C          66.8117   92.8692   13.9129 C.ar    1  UNL1        0.0536
     18 C          65.7724   92.8613   14.9945 C.ar    1  UNL1        0.0045
     19 C          66.1642   92.5516   16.4089 C.ar    1  UNL1        0.0001
     20 C          67.5953   92.2498   16.7418 C.ar    1  UNL1        0.0000
     21 C          68.6346   92.2578   15.6603 C.ar    1  UNL1        0.0001
     22 C          68.2429   92.5675   14.2458 C.ar    1  UNL1        0.0045
     23 C          62.3217   89.6293   11.7848 C.3     1  UNL1        0.0071
     24 C          61.9768   89.1276   10.4138 C.3     1  UNL1        0.0177
     25 C          61.2203   87.8422   10.2539 C.3     1  UNL1        0.0721
     26 C          62.8717   84.0297   11.9823 C.3     1  UNL1        0.0819
     27 C          62.0043   83.9848   10.7594 C.3     1  UNL1        0.0398
     28 C          61.4538   85.2556   10.1833 C.3     1  UNL1        0.0741
     29 N          61.7708   86.5714   10.8301 N.3     1  UNL1       -0.2725
     30 C          62.6382   86.6163   12.0530 C.3     1  UNL1        0.0741
     31 C          63.1886   85.3455   12.6291 C.3     1  UNL1        0.0398
     32 C          62.8538   82.5512   11.7298 C.ar    1  UNL1       -0.0060
     33 C          62.3495   81.6156   12.7882 C.ar    1  UNL1       -0.0027
     34 C          62.3317   80.1371   12.5356 C.ar    1  UNL1       -0.0003
     35 C          62.8181   79.5943   11.2246 C.ar    1  UNL1       -0.0000
     36 C          63.3224   80.5299   10.1662 C.ar    1  UNL1       -0.0003
     37 C          63.3403   82.0083   10.4188 C.ar    1  UNL1       -0.0027
     38 C          64.1207   83.2487   15.6675 C.3     1  UNL1        0.0948
     39 C          63.2594   83.7173   14.5322 C.2     1  UNL1        0.2263
     40 O          61.9247   84.3421   14.8117 O.2     1  UNL1       -0.2748
     41 N          63.7329   83.5611   13.1175 N.am    1  UNL1       -0.2774
     42 C          65.0676   82.9363   12.8380 C.3     1  UNL1        0.1150
@<TRIPOS>BOND
     1    38    39    1
     2    39    40    2
     3    39    41   am
     4    41    42    1
     5    41    26    1
     6    26    32    1
     7    32    33   ar
     8    33    34   ar
     9    34    35   ar
    10    35    36   ar
    11    36    37   ar
    12    26    27    1
    13    27    28    1
    14    28    29    1
    15    29    25    1
    16    25    24    1
    17    24    23    1
    18     1    23    1
    19     1     9    1
    20     9    10   ar
    21    10    11   ar
    22    11    12   ar
    23    12    13    1
    24    12    14   ar
    25    14    15    1
    26    14    16   ar
    27     1     2    1
    28     2     3    1
    29     3     4    1
    30     4     5    1
    31     5     6   am
    32     6     7    2
    33     6    17    1
    34    17    18   ar
    35    18    19   ar
    36    19    20   ar
    37    20    21   ar
    38    21    22   ar
    39     5     8    1
    40    29    30    1
    41    30    31    1
    42    31    26    1
    43    37    32   ar
    44     8     1    1
    45    16     9   ar
    46    22    17   ar
@<TRIPOS>MOLECULE
*****
 42 46 0 0 0
SMALL
GASTEIGER

@<TRIPOS>ATOM
      1 C          62.8692   86.2644   11.3378 C.3     1  UNL1        0.0373
      2 C          62.6402   86.8498    9.9759 C.3     1  UNL1        0.0075
      3 C          62.5501   85.9507    8.7785 C.3     1  UNL1        0.0219
      4 C          62.6891   84.4663    8.9431 C.3     1  UNL1        0.0937
      5 N          62.9182   83.8809   10.3050 N.am    1  UNL1       -0.2758
      6 C          63.0572   82.3964   10.4696 C.2     1  UNL1        0.2490
      7 O          62.9671   81.4974    9.2722 O.2     1  UNL1       -0.2699
      8 C          63.0082   84.7799   11.5023 C.3     1  UNL1        0.0976
      9 C          63.0748   86.1850   12.8215 C.ar    1  UNL1       -0.0203
     10 C          63.7772   87.2974   13.5420 C.ar    1  UNL1       -0.0033
     11 C          63.9828   87.2180   15.0257 C.ar    1  UNL1        0.0119
     12 C          63.4859   86.0260   15.7890 C.ar    1  UNL1        0.0682
     13 CL         63.6915   85.9466   17.2727 Cl      1  UNL1       -0.0814
     14 C          62.7835   84.9136   15.0685 C.ar    1  UNL1        0.0679
     15 CL         62.2867   83.7217   15.8317 Cl      1  UNL1       -0.0814
     16 C          62.5780   84.9930   13.5848 C.ar    1  UNL1        0.0080
     17 C          63.2863   81.8110   11.8315 C.ar    1  UNL1        0.0536
     18 C          64.5398   82.1385   12.5875 C.ar    1  UNL1        0.0045
     19 C          64.7689   81.5530   13.9494 C.ar    1  UNL1        0.0001
     20 C          63.7445   80.6402   14.5553 C.ar    1  UNL1        0.0000
     21 C          62.4910   80.3127   13.7994 C.ar    1  UNL1        0.0001
     22 C          62.2618   80.8981   12.4375 C.ar    1  UNL1        0.0045
     23 C          62.8016   87.7213   11.6885 C.3     1  UNL1        0.0071
     24 C          61.8692   88.6296   10.9429 C.3     1  UNL1        0.0177
     25 C          61.7969   90.0852   11.2979 C.3     1  UNL1        0.0721
     26 C          65.5792   92.4231   11.9894 C.3     1  UNL1        0.0819
     27 C          65.0803   91.4759   13.0401 C.3     1  UNL1        0.0398
     28 C          63.8195   90.6966   12.8096 C.3     1  UNL1        0.0741
     29 N          63.0576   90.8645   11.5284 N.3     1  UNL1       -0.2725
     30 C          63.5565   91.8117   10.4778 C.3     1  UNL1        0.0741
     31 C          64.8173   92.5910   10.7082 C.3     1  UNL1        0.0398
     32 C          66.6426   92.6062   13.0314 C.ar    1  UNL1       -0.0060
     33 C          66.4135   93.5430   14.1803 C.ar    1  UNL1       -0.0027
     34 C          67.4769   93.7261   15.2222 C.ar    1  UNL1       -0.0003
     35 C          68.7694   92.9725   15.1152 C.ar    1  UNL1       -0.0000
     36 C          68.9986   92.0358   13.9663 C.ar    1  UNL1       -0.0003
     37 C          67.9351   91.8526   12.9244 C.ar    1  UNL1       -0.0027
     38 C          68.2669   94.0084    9.5373 C.3     1  UNL1        0.0948
     39 C          67.3987   92.9976   10.2261 C.2     1  UNL1        0.2263
     40 O          67.4818   91.5504    9.8404 O.2     1  UNL1       -0.2748
     41 N          66.4474   93.4339   11.3006 N.am    1  UNL1       -0.2774
     42 C          66.3644   94.8811   11.6864 C.3     1  UNL1        0.1150
@<TRIPOS>BOND
     1    38    39    1
     2    39    40    2
     3    39    41   am
     4    41    42    1
     5    41    26    1
     6    26    32    1
     7    32    33   ar
     8    33    34   ar
     9    34    35   ar
    10    35    36   ar
    11    36    37   ar
    12    26    27    1
    13    27    28    1
    14    28    29    1
    15    29    25    1
    16    25    24    1
    17    24    23    1
    18     1    23    1
    19     1     9    1
    20     9    10   ar
    21    10    11   ar
    22    11    12   ar
    23    12    13    1
    24    12    14   ar
    25    14    15    1
    26    14    16   ar
    27     1     2    1
    28     2     3    1
    29     3     4    1
    30     4     5    1
    31     5     6   am
    32     6     7    2
    33     6    17    1
    34    17    18   ar
    35    18    19   ar
    36    19    20   ar
    37    20    21   ar
    38    21    22   ar
    39     5     8    1
    40    29    30    1
    41    30    31    1
    42    31    26    1
    43    37    32   ar
    44     8     1    1
    45    16     9   ar
    46    22    17   ar
