@<TRIPOS>MOLECULE
*****
 31 34 0 0 0
SMALL
GASTEIGER

@<TRIPOS>ATOM
      1 C          62.9529   85.7665   12.5302 C.3     1  UNL1        0.1160
      2 C          63.5478   87.0194   13.1015 C.ar    1  UNL1        0.0960
      3 N          63.7780   88.4794   12.8460 N.ar    1  UNL1       -0.1681
      4 N          64.5104   89.0465   14.0259 N.ar    1  UNL1       -0.2287
      5 C          64.7328   87.9369   15.0105 C.ar    1  UNL1        0.0990
      6 C          64.1379   86.6841   14.4392 C.ar    1  UNL1        0.0337
      7 C          63.9076   85.2241   14.6946 C.3     1  UNL1        0.1220
      8 N          63.1752   84.6569   13.5147 N.pl3   1  UNL1       -0.2853
      9 C          64.9443   90.4728   14.1920 C.ar    1  UNL1        0.0841
     10 C          65.0263   91.0770   15.5625 C.ar    1  UNL1        0.0192
     11 C          65.4602   92.5033   15.7285 C.ar    1  UNL1        0.0029
     12 C          65.8120   93.3253   14.5242 C.ar    1  UNL1        0.0184
     13 C          65.7299   92.7211   13.1537 C.ar    1  UNL1        0.1072
     14 C          65.2961   91.2948   12.9877 C.ar    1  UNL1        0.0375
     15 S          66.0817   93.5430   11.9493 S.O2    1  UNL1        0.0105
     16 C          66.4335   94.3651   10.7450 C.3     1  UNL1        0.1816
     17 O          65.7147   92.3939   11.0578 O.2     1  UNL1       -0.1686
     18 O          66.4487   94.6922   12.8409 O.2     1  UNL1       -0.1686
     19 C          62.7414   83.2307   13.3486 C.ar    1  UNL1        0.1353
     20 C          61.9550   82.5548   14.4326 C.ar    1  UNL1        0.0550
     21 C          61.5212   81.1287   14.2665 C.ar    1  UNL1        0.1034
     22 N          61.8737   80.3782   13.0164 N.ar    1  UNL1       -0.2217
     23 C          62.6601   81.0540   11.9325 C.ar    1  UNL1        0.2363
     24 N          63.0939   82.4803   12.0986 N.ar    1  UNL1       -0.2083
     25 C          63.0125   80.3035   10.6825 C.3     1  UNL1        0.4523
     26 F          63.3650   79.5532    9.4324 F       1  UNL1       -0.1632
     27 F          62.5598   79.0247   11.3225 F       1  UNL1       -0.1632
     28 F          63.4653   81.5825   10.0425 F       1  UNL1       -0.1632
     29 C          60.9692   86.3742   10.9663 C.3     1  UNL1        0.0021
     30 C          62.2576   85.6446   11.2066 C.3     1  UNL1        0.0240
     31 C          62.8507   84.7932   10.1234 C.3     1  UNL1        0.0021
@<TRIPOS>BOND
     1    29    30    1
     2    30    31    1
     3     1    30    1
     4     1     2    1
     5     2     3   ar
     6     3     4   ar
     7     4     9    1
     8     9    10   ar
     9    10    11   ar
    10    11    12   ar
    11    12    13   ar
    12    13    15    1
    13    15    16    1
    14    15    17    2
    15    15    18    2
    16    13    14   ar
    17     4     5   ar
    18     5     6   ar
    19     6     7    1
    20     7     8    1
    21     8    19    1
    22    19    20   ar
    23    20    21   ar
    24    21    22   ar
    25    22    23   ar
    26    23    25    1
    27    25    26    1
    28    25    27    1
    29    25    28    1
    30    23    24   ar
    31     8     1    1
    32    24    19   ar
    33     6     2   ar
    34    14     9   ar
@<TRIPOS>MOLECULE
*****
 31 34 0 0 0
SMALL
GASTEIGER

@<TRIPOS>ATOM
      1 C          62.5272   87.3426   11.4449 C.3     1  UNL1        0.1160
      2 C          63.1194   88.4702   12.2371 C.ar    1  UNL1        0.0960
      3 N          63.8952   88.8066   13.4760 N.ar    1  UNL1       -0.1681
      4 N          64.0776   90.2949   13.5189 N.ar    1  UNL1       -0.2287
      5 C          63.4146   90.8783   12.3064 C.ar    1  UNL1        0.0990
      6 C          62.8224   89.7506   11.5142 C.ar    1  UNL1        0.0337
      7 C          62.0466   89.4142   10.2753 C.3     1  UNL1        0.1220
      8 N          61.8641   87.9259   10.2324 N.pl3   1  UNL1       -0.2853
      9 C          64.7968   91.0646   14.5867 C.ar    1  UNL1        0.0841
     10 C          64.0819   91.4408   15.8506 C.ar    1  UNL1        0.0192
     11 C          64.8012   92.2106   16.9184 C.ar    1  UNL1        0.0029
     12 C          66.2353   92.6041   16.7224 C.ar    1  UNL1        0.0184
     13 C          66.9502   92.2279   15.4585 C.ar    1  UNL1        0.1072
     14 C          66.2309   91.4581   14.3907 C.ar    1  UNL1        0.0375
     15 S          68.3843   92.6213   15.2624 S.O2    1  UNL1        0.0105
     16 C          69.8185   93.0147   15.0664 C.3     1  UNL1        0.1816
     17 O          68.0842   93.0090   13.8448 O.2     1  UNL1       -0.1686
     18 O          68.6844   92.2336   16.6801 O.2     1  UNL1       -0.1686
     19 C          61.1450   87.1562    9.1646 C.ar    1  UNL1        0.1353
     20 C          59.6649   87.3240    8.9869 C.ar    1  UNL1        0.0550
     21 C          58.9458   86.5543    7.9191 C.ar    1  UNL1        0.1034
     22 N          59.7066   85.6168    7.0289 N.ar    1  UNL1       -0.2217
     23 C          61.1865   85.4490    7.2065 C.ar    1  UNL1        0.2363
     24 N          61.9057   86.2188    8.2744 N.ar    1  UNL1       -0.2083
     25 C          61.9472   84.5116    6.3163 C.3     1  UNL1        0.4523
     26 F          62.7079   83.5741    5.4261 F       1  UNL1       -0.1632
     27 F          63.2240   84.8944    7.0042 F       1  UNL1       -0.1632
     28 F          60.6703   84.1288    5.6284 F       1  UNL1       -0.1632
     29 C          63.2817   85.4514   13.0586 C.3     1  UNL1        0.0021
     30 C          62.5875   85.8870   11.8023 C.3     1  UNL1        0.0240
     31 C          61.9535   84.8671   10.9034 C.3     1  UNL1        0.0021
@<TRIPOS>BOND
     1    29    30    1
     2    30    31    1
     3     1    30    1
     4     1     2    1
     5     2     3   ar
     6     3     4   ar
     7     4     9    1
     8     9    10   ar
     9    10    11   ar
    10    11    12   ar
    11    12    13   ar
    12    13    15    1
    13    15    16    1
    14    15    17    2
    15    15    18    2
    16    13    14   ar
    17     4     5   ar
    18     5     6   ar
    19     6     7    1
    20     7     8    1
    21     8    19    1
    22    19    20   ar
    23    20    21   ar
    24    21    22   ar
    25    22    23   ar
    26    23    25    1
    27    25    26    1
    28    25    27    1
    29    25    28    1
    30    23    24   ar
    31     8     1    1
    32    24    19   ar
    33     6     2   ar
    34    14     9   ar
@<TRIPOS>MOLECULE
*****
 31 34 0 0 0
SMALL
GASTEIGER

@<TRIPOS>ATOM
      1 C          63.5743   88.8782   12.8756 C.3     1  UNL1        0.1160
      2 C          63.4467   87.4079   13.1442 C.ar    1  UNL1        0.0960
      3 N          62.7335   86.1557   12.7278 N.ar    1  UNL1       -0.1681
      4 N          63.2401   85.0291   13.5787 N.ar    1  UNL1       -0.2287
      5 C          64.2663   85.5850   14.5210 C.ar    1  UNL1        0.0990
      6 C          64.3940   87.0552   14.2524 C.ar    1  UNL1        0.0337
      7 C          65.1071   88.3074   14.6688 C.3     1  UNL1        0.1220
      8 N          64.6005   89.4342   13.8179 N.pl3   1  UNL1       -0.2853
      9 C          62.7981   83.5978   13.5010 C.ar    1  UNL1        0.0841
     10 C          62.0621   82.9767   14.6510 C.ar    1  UNL1        0.0192
     11 C          61.6201   81.5453   14.5732 C.ar    1  UNL1        0.0029
     12 C          61.9141   80.7352   13.3455 C.ar    1  UNL1        0.0184
     13 C          62.6502   81.3563   12.1956 C.ar    1  UNL1        0.1072
     14 C          63.0921   82.7876   12.2734 C.ar    1  UNL1        0.0375
     15 S          62.9442   80.5462   10.9679 S.O2    1  UNL1        0.0105
     16 C          63.2383   79.7362    9.7401 C.3     1  UNL1        0.1816
     17 O          62.5146   79.3015   11.6862 O.2     1  UNL1       -0.1686
     18 O          63.3739   81.7910   10.2495 O.2     1  UNL1       -0.1686
     19 C          65.0425   90.8654   13.8956 C.ar    1  UNL1        0.1353
     20 C          65.2931   91.5016   15.2308 C.ar    1  UNL1        0.0550
     21 C          65.7351   92.9328   15.3085 C.ar    1  UNL1        0.1034
     22 N          65.9266   93.7280   14.0510 N.ar    1  UNL1       -0.2217
     23 C          65.6760   93.0918   12.7159 C.ar    1  UNL1        0.2363
     24 N          65.2340   91.6605   12.6382 N.ar    1  UNL1       -0.2083
     25 C          65.8675   93.8870   11.4585 C.3     1  UNL1        0.4523
     26 F          66.0590   94.6823   10.2012 F       1  UNL1       -0.1632
     27 F          65.6723   92.6437   10.6425 F       1  UNL1       -0.1632
     28 F          66.0628   95.1304   12.2747 F       1  UNL1       -0.1632
     29 C          63.4863   90.0894   10.5789 C.3     1  UNL1        0.0021
     30 C          62.8100   89.6559   11.8456 C.3     1  UNL1        0.0240
     31 C          61.3694   90.0002   12.0824 C.3     1  UNL1        0.0021
@<TRIPOS>BOND
     1    29    30    1
     2    30    31    1
     3     1    30    1
     4     1     2    1
     5     2     3   ar
     6     3     4   ar
     7     4     9    1
     8     9    10   ar
     9    10    11   ar
    10    11    12   ar
    11    12    13   ar
    12    13    15    1
    13    15    16    1
    14    15    17    2
    15    15    18    2
    16    13    14   ar
    17     4     5   ar
    18     5     6   ar
    19     6     7    1
    20     7     8    1
    21     8    19    1
    22    19    20   ar
    23    20    21   ar
    24    21    22   ar
    25    22    23   ar
    26    23    25    1
    27    25    26    1
    28    25    27    1
    29    25    28    1
    30    23    24   ar
    31     8     1    1
    32    24    19   ar
    33     6     2   ar
    34    14     9   ar
@<TRIPOS>MOLECULE
*****
 31 34 0 0 0
SMALL
GASTEIGER

@<TRIPOS>ATOM
      1 C          63.0111   85.3514   12.5060 C.3     1  UNL1        0.1160
      2 C          63.5031   86.6068   13.1632 C.ar    1  UNL1        0.0960
      3 N          63.6969   88.0817   12.9704 N.ar    1  UNL1       -0.1681
      4 N          64.2991   88.6381   14.2265 N.ar    1  UNL1       -0.2287
      5 C          64.4773   87.5071   15.1956 C.ar    1  UNL1        0.0990
      6 C          63.9854   86.2517   14.5384 C.ar    1  UNL1        0.0337
      7 C          63.7915   84.7768   14.7312 C.3     1  UNL1        0.1220
      8 N          63.1894   84.2203   13.4750 N.pl3   1  UNL1       -0.2853
      9 C          64.6596   90.0735   14.4707 C.ar    1  UNL1        0.0841
     10 C          64.5084   90.6619   15.8421 C.ar    1  UNL1        0.0192
     11 C          64.8690   92.0973   16.0863 C.ar    1  UNL1        0.0029
     12 C          65.3808   92.9443   14.9590 C.ar    1  UNL1        0.0184
     13 C          65.5320   92.3559   13.5876 C.ar    1  UNL1        0.1072
     14 C          65.1714   90.9204   13.3435 C.ar    1  UNL1        0.0375
     15 S          66.0438   93.2028   12.4603 S.O2    1  UNL1        0.0105
     16 C          66.5555   94.0496   11.3329 C.3     1  UNL1        0.1816
     17 O          66.9564   93.9180   13.4118 O.2     1  UNL1       -0.1686
     18 O          65.1311   92.4875   11.5087 O.2     1  UNL1       -0.1686
     19 C          62.8288   82.7850   13.2309 C.ar    1  UNL1        0.1353
     20 C          63.7068   81.9273   12.3685 C.ar    1  UNL1        0.0550
     21 C          63.3463   80.4920   12.1243 C.ar    1  UNL1        0.1034
     22 N          62.1077   79.9142   12.7426 N.ar    1  UNL1       -0.2217
     23 C          61.2297   80.7717   13.6049 C.ar    1  UNL1        0.2363
     24 N          61.5903   82.2072   13.8490 N.ar    1  UNL1       -0.2083
     25 C          59.9912   80.1939   14.2231 C.3     1  UNL1        0.4523
     26 F          58.7526   79.6162   14.8412 F       1  UNL1       -0.1632
     27 F          60.6378   78.8408   14.2537 F       1  UNL1       -0.1632
     28 F          59.3447   81.5472   14.1924 F       1  UNL1       -0.1632
     29 C          61.1352   85.9078   10.7969 C.3     1  UNL1        0.0021
     30 C          62.4410   85.2455   11.1226 C.3     1  UNL1        0.0240
     31 C          63.1767   84.4772   10.0650 C.3     1  UNL1        0.0021
@<TRIPOS>BOND
     1    29    30    1
     2    30    31    1
     3     1    30    1
     4     1     2    1
     5     2     3   ar
     6     3     4   ar
     7     4     9    1
     8     9    10   ar
     9    10    11   ar
    10    11    12   ar
    11    12    13   ar
    12    13    15    1
    13    15    16    1
    14    15    17    2
    15    15    18    2
    16    13    14   ar
    17     4     5   ar
    18     5     6   ar
    19     6     7    1
    20     7     8    1
    21     8    19    1
    22    19    20   ar
    23    20    21   ar
    24    21    22   ar
    25    22    23   ar
    26    23    25    1
    27    25    26    1
    28    25    27    1
    29    25    28    1
    30    23    24   ar
    31     8     1    1
    32    24    19   ar
    33     6     2   ar
    34    14     9   ar
@<TRIPOS>MOLECULE
*****
 31 34 0 0 0
SMALL
GASTEIGER

@<TRIPOS>ATOM
      1 C          61.6643   87.7344   10.6799 C.3     1  UNL1        0.1160
      2 C          61.0142   88.2412    9.4267 C.ar    1  UNL1        0.0960
      3 N          60.5582   89.4780    8.7109 N.ar    1  UNL1       -0.1681
      4 N          59.9623   89.0611    7.3990 N.ar    1  UNL1       -0.2287
      5 C          60.0501   87.5667    7.3039 C.ar    1  UNL1        0.0990
      6 C          60.7002   87.0599    8.5571 C.ar    1  UNL1        0.0337
      7 C          61.1562   85.8231    9.2729 C.3     1  UNL1        0.1220
      8 N          61.7521   86.2400   10.5849 N.pl3   1  UNL1       -0.2853
      9 C          59.3808   89.9778    6.3638 C.ar    1  UNL1        0.0841
     10 C          57.8952   90.1668    6.2789 C.ar    1  UNL1        0.0192
     11 C          57.3138   91.0835    5.2436 C.ar    1  UNL1        0.0029
     12 C          58.2179   91.8111    4.2933 C.ar    1  UNL1        0.0184
     13 C          59.7035   91.6221    4.3782 C.ar    1  UNL1        0.1072
     14 C          60.2849   90.7054    5.4134 C.ar    1  UNL1        0.0375
     15 S          60.6076   92.3496    3.4279 S.O2    1  UNL1        0.0105
     16 C          61.5119   93.0772    2.4776 C.3     1  UNL1        0.1816
     17 O          59.4280   93.0924    2.8740 O.2     1  UNL1       -0.1686
     18 O          61.7874   91.6069    3.9818 O.2     1  UNL1       -0.1686
     19 C          62.3335   85.3234   11.6200 C.ar    1  UNL1        0.1353
     20 C          62.6350   83.8954   11.2731 C.ar    1  UNL1        0.0550
     21 C          63.2165   82.9788   12.3082 C.ar    1  UNL1        0.1034
     22 N          63.4966   83.4900   13.6904 N.ar    1  UNL1       -0.2217
     23 C          63.1951   84.9179   14.0374 C.ar    1  UNL1        0.2363
     24 N          62.6136   85.8345   13.0021 N.ar    1  UNL1       -0.2083
     25 C          63.4752   85.4290   15.4195 C.3     1  UNL1        0.4523
     26 F          63.7552   85.9401   16.8016 F       1  UNL1       -0.1632
     27 F          64.5578   86.3121   14.8735 F       1  UNL1       -0.1632
     28 F          62.3925   84.5459   15.9654 F       1  UNL1       -0.1632
     29 C          61.2538   89.6388   12.3988 C.3     1  UNL1        0.0021
     30 C          62.1426   88.5745   11.8268 C.3     1  UNL1        0.0240
     31 C          63.5099   88.3504   12.4017 C.3     1  UNL1        0.0021
@<TRIPOS>BOND
     1    29    30    1
     2    30    31    1
     3     1    30    1
     4     1     2    1
     5     2     3   ar
     6     3     4   ar
     7     4     9    1
     8     9    10   ar
     9    10    11   ar
    10    11    12   ar
    11    12    13   ar
    12    13    15    1
    13    15    16    1
    14    15    17    2
    15    15    18    2
    16    13    14   ar
    17     4     5   ar
    18     5     6   ar
    19     6     7    1
    20     7     8    1
    21     8    19    1
    22    19    20   ar
    23    20    21   ar
    24    21    22   ar
    25    22    23   ar
    26    23    25    1
    27    25    26    1
    28    25    27    1
    29    25    28    1
    30    23    24   ar
    31     8     1    1
    32    24    19   ar
    33     6     2   ar
    34    14     9   ar
@<TRIPOS>MOLECULE
*****
 31 34 0 0 0
SMALL
GASTEIGER

@<TRIPOS>ATOM
      1 C          63.7072   88.8865   13.4124 C.3     1  UNL1        0.1160
      2 C          63.6882   87.4059   13.1727 C.ar    1  UNL1        0.0960
      3 N          63.2496   86.3370   12.2161 N.ar    1  UNL1       -0.1681
      4 N          63.6573   85.0103   12.7850 N.ar    1  UNL1       -0.2287
      5 C          64.3478   85.2593   14.0932 C.ar    1  UNL1        0.0990
      6 C          64.3669   86.7399   14.3328 C.ar    1  UNL1        0.0337
      7 C          64.8054   87.8088   15.2894 C.3     1  UNL1        0.1220
      8 N          64.3977   89.1356   14.7206 N.pl3   1  UNL1       -0.2853
      9 C          63.4168   83.6699   12.1562 C.ar    1  UNL1        0.0841
     10 C          63.7140   83.4600   10.7010 C.ar    1  UNL1        0.0192
     11 C          63.4734   82.1195   10.0722 C.ar    1  UNL1        0.0029
     12 C          62.9357   80.9890   10.8985 C.ar    1  UNL1        0.0184
     13 C          62.6385   81.1989   12.3537 C.ar    1  UNL1        0.1072
     14 C          62.8791   82.5394   12.9825 C.ar    1  UNL1        0.0375
     15 S          62.1008   80.0685   13.1801 S.O2    1  UNL1        0.0105
     16 C          61.5631   78.9382   14.0065 C.3     1  UNL1        0.1816
     17 O          62.5591   79.0899   12.1398 O.2     1  UNL1       -0.1686
     18 O          61.6425   81.0472   14.2204 O.2     1  UNL1       -0.1686
     19 C          64.6382   90.4759   15.3494 C.ar    1  UNL1        0.1353
     20 C          63.5781   91.1043   16.2047 C.ar    1  UNL1        0.0550
     21 C          63.8186   92.4446   16.8335 C.ar    1  UNL1        0.1034
     22 N          65.1193   93.1567   16.6072 N.ar    1  UNL1       -0.2217
     23 C          66.1795   92.5284   15.7520 C.ar    1  UNL1        0.2363
     24 N          65.9388   91.1880   15.1231 N.ar    1  UNL1       -0.2083
     25 C          67.4801   93.2405   15.5257 C.3     1  UNL1        0.4523
     26 F          68.7808   93.9526   15.2995 F       1  UNL1       -0.1632
     27 F          66.8111   94.1481   14.5364 F       1  UNL1       -0.1632
     28 F          68.1490   92.3329   16.5151 F       1  UNL1       -0.1632
     29 C          61.7374   89.7919   11.9806 C.3     1  UNL1        0.0021
     30 C          63.1361   89.9342   12.5035 C.3     1  UNL1        0.0240
     31 C          63.9636   91.1242   12.1174 C.3     1  UNL1        0.0021
@<TRIPOS>BOND
     1    29    30    1
     2    30    31    1
     3     1    30    1
     4     1     2    1
     5     2     3   ar
     6     3     4   ar
     7     4     9    1
     8     9    10   ar
     9    10    11   ar
    10    11    12   ar
    11    12    13   ar
    12    13    15    1
    13    15    16    1
    14    15    17    2
    15    15    18    2
    16    13    14   ar
    17     4     5   ar
    18     5     6   ar
    19     6     7    1
    20     7     8    1
    21     8    19    1
    22    19    20   ar
    23    20    21   ar
    24    21    22   ar
    25    22    23   ar
    26    23    25    1
    27    25    26    1
    28    25    27    1
    29    25    28    1
    30    23    24   ar
    31     8     1    1
    32    24    19   ar
    33     6     2   ar
    34    14     9   ar
@<TRIPOS>MOLECULE
*****
 31 34 0 0 0
SMALL
GASTEIGER

@<TRIPOS>ATOM
      1 C          61.3546   89.1871   10.8006 C.3     1  UNL1        0.1160
      2 C          62.2504   89.5698   11.9413 C.ar    1  UNL1        0.0960
      3 N          62.5862   90.6697   12.9043 N.ar    1  UNL1       -0.1681
      4 N          63.6997   90.1890   13.7869 N.ar    1  UNL1       -0.2287
      5 C          64.0521   88.7921   13.3693 C.ar    1  UNL1        0.0990
      6 C          63.1564   88.4093   12.2286 C.ar    1  UNL1        0.0337
      7 C          62.8206   87.3095   11.2656 C.3     1  UNL1        0.1220
      8 N          61.7069   87.7901   10.3830 N.pl3   1  UNL1       -0.2853
      9 C          64.3473   90.9684   14.8929 C.ar    1  UNL1        0.0841
     10 C          63.6441   91.1299   16.2080 C.ar    1  UNL1        0.0192
     11 C          64.2917   91.9094   17.3139 C.ar    1  UNL1        0.0029
     12 C          65.6424   92.5273   17.1049 C.ar    1  UNL1        0.0184
     13 C          66.3456   92.3658   15.7898 C.ar    1  UNL1        0.1072
     14 C          65.6980   91.5863   14.6838 C.ar    1  UNL1        0.0375
     15 S          67.6963   92.9837   15.5806 S.O2    1  UNL1        0.0105
     16 C          69.0470   93.6015   15.3715 C.3     1  UNL1        0.1816
     17 O          67.1104   93.9217   14.5673 O.2     1  UNL1       -0.1686
     18 O          68.2822   92.0456   16.5940 O.2     1  UNL1       -0.1686
     19 C          61.0595   87.0107    9.2771 C.ar    1  UNL1        0.1353
     20 C          59.5747   87.0853    9.0765 C.ar    1  UNL1        0.0550
     21 C          58.9273   86.3059    7.9705 C.ar    1  UNL1        0.1034
     22 N          59.7645   85.4518    7.0650 N.ar    1  UNL1       -0.2217
     23 C          61.2491   85.3772    7.2656 C.ar    1  UNL1        0.2363
     24 N          61.8966   86.1567    8.3716 N.ar    1  UNL1       -0.2083
     25 C          62.0862   84.5232    6.3601 C.3     1  UNL1        0.4523
     26 F          62.9234   83.6692    5.4547 F       1  UNL1       -0.1632
     27 F          60.8606   84.1476    5.5813 F       1  UNL1       -0.1632
     28 F          63.3119   84.8989    7.1391 F       1  UNL1       -0.1632
     29 C          59.3585   90.8292   11.0627 C.3     1  UNL1        0.0021
     30 C          60.2928   90.0498   10.1855 C.3     1  UNL1        0.0240
     31 C          60.1654   90.1331    8.6933 C.3     1  UNL1        0.0021
@<TRIPOS>BOND
     1    29    30    1
     2    30    31    1
     3     1    30    1
     4     1     2    1
     5     2     3   ar
     6     3     4   ar
     7     4     9    1
     8     9    10   ar
     9    10    11   ar
    10    11    12   ar
    11    12    13   ar
    12    13    15    1
    13    15    16    1
    14    15    17    2
    15    15    18    2
    16    13    14   ar
    17     4     5   ar
    18     5     6   ar
    19     6     7    1
    20     7     8    1
    21     8    19    1
    22    19    20   ar
    23    20    21   ar
    24    21    22   ar
    25    22    23   ar
    26    23    25    1
    27    25    26    1
    28    25    27    1
    29    25    28    1
    30    23    24   ar
    31     8     1    1
    32    24    19   ar
    33     6     2   ar
    34    14     9   ar
@<TRIPOS>MOLECULE
*****
 31 34 0 0 0
SMALL
GASTEIGER

@<TRIPOS>ATOM
      1 C          63.6806   88.0168   13.4379 C.3     1  UNL1        0.1160
      2 C          63.4670   86.5386   13.5766 C.ar    1  UNL1        0.0960
      3 N          62.8644   85.3326   12.9189 N.ar    1  UNL1       -0.1681
      4 N          63.1214   84.1468   13.8009 N.ar    1  UNL1       -0.2287
      5 C          63.8827   84.6199   15.0036 C.ar    1  UNL1        0.0990
      6 C          64.0963   86.0981   14.8650 C.ar    1  UNL1        0.0337
      7 C          64.6989   87.3041   15.5226 C.3     1  UNL1        0.1220
      8 N          64.4420   88.4900   14.6406 N.pl3   1  UNL1       -0.2853
      9 C          62.6923   82.7356   13.5280 C.ar    1  UNL1        0.0841
     10 C          61.9028   81.9798   14.5554 C.ar    1  UNL1        0.0192
     11 C          61.4737   80.5686   14.2825 C.ar    1  UNL1        0.0029
     12 C          61.8341   79.9132   12.9823 C.ar    1  UNL1        0.0184
     13 C          62.6236   80.6690   11.9549 C.ar    1  UNL1        0.1072
     14 C          63.0527   82.0802   12.2278 C.ar    1  UNL1        0.0375
     15 S          62.9841   80.0137   10.6547 S.O2    1  UNL1        0.0105
     16 C          63.3445   79.3583    9.3545 C.3     1  UNL1        0.1816
     17 O          63.3941   81.3446   10.0975 O.2     1  UNL1       -0.1686
     18 O          62.5740   78.6827   11.2120 O.2     1  UNL1       -0.1686
     19 C          64.8711   89.9011   14.9135 C.ar    1  UNL1        0.1353
     20 C          63.9060   90.8738   15.5239 C.ar    1  UNL1        0.0550
     21 C          64.3350   92.2849   15.7967 C.ar    1  UNL1        0.1034
     22 N          65.7293   92.7235   15.4592 N.ar    1  UNL1       -0.2217
     23 C          66.6944   91.7509   14.8488 C.ar    1  UNL1        0.2363
     24 N          66.2652   90.3397   14.5759 N.ar    1  UNL1       -0.2083
     25 C          68.0885   92.1895   14.5113 C.3     1  UNL1        0.4523
     26 F          69.4827   92.6280   14.1738 F       1  UNL1       -0.1632
     27 F          67.8161   91.9372   13.0580 F       1  UNL1       -0.1632
     28 F          68.3609   92.4417   15.9646 F       1  UNL1       -0.1632
     29 C          63.5581   90.3316   12.2647 C.3     1  UNL1        0.0021
     30 C          63.2147   88.8718   12.2969 C.3     1  UNL1        0.0240
     31 C          62.4055   88.2670   11.1881 C.3     1  UNL1        0.0021
@<TRIPOS>BOND
     1    29    30    1
     2    30    31    1
     3     1    30    1
     4     1     2    1
     5     2     3   ar
     6     3     4   ar
     7     4     9    1
     8     9    10   ar
     9    10    11   ar
    10    11    12   ar
    11    12    13   ar
    12    13    15    1
    13    15    16    1
    14    15    17    2
    15    15    18    2
    16    13    14   ar
    17     4     5   ar
    18     5     6   ar
    19     6     7    1
    20     7     8    1
    21     8    19    1
    22    19    20   ar
    23    20    21   ar
    24    21    22   ar
    25    22    23   ar
    26    23    25    1
    27    25    26    1
    28    25    27    1
    29    25    28    1
    30    23    24   ar
    31     8     1    1
    32    24    19   ar
    33     6     2   ar
    34    14     9   ar
@<TRIPOS>MOLECULE
*****
 31 34 0 0 0
SMALL
GASTEIGER

@<TRIPOS>ATOM
      1 C          60.8594   88.8206    9.3937 C.3     1  UNL1        0.1160
      2 C          61.3614   87.5855   10.0811 C.ar    1  UNL1        0.0960
      3 N          62.0117   87.0719   11.3314 N.ar    1  UNL1       -0.1681
      4 N          62.1736   85.5871   11.1933 N.ar    1  UNL1       -0.2287
      5 C          61.6234   85.1830    9.8577 C.ar    1  UNL1        0.0990
      6 C          61.1214   86.4181    9.1703 C.ar    1  UNL1        0.0337
      7 C          60.4711   86.9316    7.9199 C.3     1  UNL1        0.1220
      8 N          60.3092   88.4165    8.0580 N.pl3   1  UNL1       -0.2853
      9 C          62.7794   84.6677   12.2120 C.ar    1  UNL1        0.0841
     10 C          63.6671   85.2205   13.2874 C.ar    1  UNL1        0.0192
     11 C          64.2729   84.3010   14.3061 C.ar    1  UNL1        0.0029
     12 C          63.9910   82.8288   14.2495 C.ar    1  UNL1        0.0184
     13 C          63.1032   82.2761   13.1741 C.ar    1  UNL1        0.1072
     14 C          62.4975   83.1955   12.1554 C.ar    1  UNL1        0.0375
     15 S          62.8212   80.8039   13.1174 S.O2    1  UNL1        0.0105
     16 C          62.5393   79.3318   13.0607 C.3     1  UNL1        0.1816
     17 O          62.7493   80.7599   14.6151 O.2     1  UNL1       -0.1686
     18 O          62.8932   80.8479   11.6197 O.2     1  UNL1       -0.1686
     19 C          59.7034   89.3358    7.0393 C.ar    1  UNL1        0.1353
     20 C          58.2127   89.4756    6.9474 C.ar    1  UNL1        0.0550
     21 C          57.6069   90.3948    5.9288 C.ar    1  UNL1        0.1034
     22 N          58.4918   91.1746    5.0018 N.ar    1  UNL1       -0.2217
     23 C          59.9825   91.0349    5.0936 C.ar    1  UNL1        0.2363
     24 N          60.5882   90.1155    6.1124 N.ar    1  UNL1       -0.2083
     25 C          60.8673   91.8146    4.1667 C.3     1  UNL1        0.4523
     26 F          61.7522   92.5941    3.2398 F       1  UNL1       -0.1632
     27 F          59.7358   92.7562    3.8787 F       1  UNL1       -0.1632
     28 F          61.9988   90.8728    4.4548 F       1  UNL1       -0.1632
     29 C          62.1488   91.0363    9.8152 C.3     1  UNL1        0.0021
     30 C          60.9005   90.2149    9.9451 C.3     1  UNL1        0.0240
     31 C          59.6931   90.7879   10.6263 C.3     1  UNL1        0.0021
@<TRIPOS>BOND
     1    29    30    1
     2    30    31    1
     3     1    30    1
     4     1     2    1
     5     2     3   ar
     6     3     4   ar
     7     4     9    1
     8     9    10   ar
     9    10    11   ar
    10    11    12   ar
    11    12    13   ar
    12    13    15    1
    13    15    16    1
    14    15    17    2
    15    15    18    2
    16    13    14   ar
    17     4     5   ar
    18     5     6   ar
    19     6     7    1
    20     7     8    1
    21     8    19    1
    22    19    20   ar
    23    20    21   ar
    24    21    22   ar
    25    22    23   ar
    26    23    25    1
    27    25    26    1
    28    25    27    1
    29    25    28    1
    30    23    24   ar
    31     8     1    1
    32    24    19   ar
    33     6     2   ar
    34    14     9   ar
