@<TRIPOS>MOLECULE
*****
 34 37 0 0 0
SMALL
GASTEIGER

@<TRIPOS>ATOM
      1 C          63.7388   89.4518   15.2690 C.2     1  UNL1        0.2320
      2 O          62.4055   89.3035   15.9399 O.2     1  UNL1       -0.2744
      3 N          64.5064   88.2336   14.8485 N.am    1  UNL1       -0.2639
      4 H          65.3815   88.3309   14.4081 H       1  UNL1        0.1567
      5 C          63.9406   86.8672   15.0988 C.ar    1  UNL1        0.1655
      6 N          63.7064   85.8066   14.0642 N.ar    1  UNL1       -0.2239
      7 C          63.1307   84.6054   14.7537 C.ar    1  UNL1        0.0913
      8 C          63.0091   84.9234   16.2145 C.ar    1  UNL1        0.0573
      9 S          63.5096   86.3212   16.4278 S.2     1  UNL1       -0.0508
     10 C          62.7445   83.3129   14.0976 C.ar    1  UNL1        0.0403
     11 C          61.8696   82.2494   14.6920 C.ar    1  UNL1        0.1021
     12 N          61.7498   81.1363   13.6937 N.ar    1  UNL1       -0.2269
     13 C          62.5506   81.5120   12.4822 C.ar    1  UNL1        0.1406
     14 N          62.7994   80.8029   11.1841 N.ar    1  UNL1       -0.3374
     15 C          63.6630   81.4391   10.1355 C.ar    1  UNL1        0.0735
     16 C          64.2778   82.7843   10.3852 C.ar    1  UNL1        0.0186
     17 C          64.0290   83.4934   11.6833 C.ar    1  UNL1        0.0046
     18 C          63.1654   82.8572   12.7319 C.ar    1  UNL1        0.0370
     19 H          62.3959   79.9200   11.0202 H       1  UNL1        0.1674
     20 C          64.3047   90.8182   15.0186 C.3     1  UNL1        0.1117
     21 C          65.8171   92.7447   11.8959 C.ar    1  UNL1        0.0641
     22 C          64.9123   92.2636   10.8006 C.ar    1  UNL1        0.0158
     23 C          63.8049   91.3006   11.1112 C.ar    1  UNL1        0.0010
     24 C          63.6024   90.8188   12.5173 C.ar    1  UNL1       -0.0037
     25 C          64.5072   91.3000   13.6126 C.ar    1  UNL1       -0.0118
     26 C          65.6146   92.2630   13.3019 C.ar    1  UNL1        0.0121
     27 N          66.9245   93.7076   11.5853 N.pl3   1  UNL1       -0.2188
     28 H          67.8245   93.5588   11.9555 H       1  UNL1        0.1734
     29 S          66.6605   94.8973   10.7107 S.O2    1  UNL1        0.0522
     30 O          67.4085   94.2389    9.5894 O.2     1  UNL1       -0.1545
     31 O          65.9126   95.5557   11.8318 O.2     1  UNL1       -0.1545
     32 C          65.1168   96.8556    9.9811 C.3     1  UNL1        0.0273
     33 C          66.3967   96.0870    9.8359 C.3     1  UNL1        0.1489
     34 C          67.4128   96.5080    8.8160 C.3     1  UNL1        0.0273
@<TRIPOS>BOND
     1    32    33    1
     2    33    34    1
     3    33    29    1
     4    29    30    2
     5    29    31    2
     6    29    27    1
     7    27    21    1
     8    21    22   ar
     9    22    23   ar
    10    23    24   ar
    11    24    25   ar
    12    25    20    1
    13    20     1    1
    14     1     2    2
    15     1     3   am
    16     3     5    1
    17     5     6   ar
    18     6     7   ar
    19     7    10    1
    20    10    11   ar
    21    11    12   ar
    22    12    13   ar
    23    13    14   ar
    24    14    15   ar
    25    15    16   ar
    26    16    17   ar
    27    17    18   ar
    28     7     8   ar
    29     8     9   ar
    30    25    26   ar
    31    26    21   ar
    32     9     5   ar
    33    18    10   ar
    34    18    13    1
    35    27    28    1
    36     3     4    1
    37    14    19    1
@<TRIPOS>MOLECULE
*****
 34 37 0 0 0
SMALL
GASTEIGER

@<TRIPOS>ATOM
      1 C          63.6201   89.2040   13.6253 C.2     1  UNL1        0.2320
      2 O          63.6671   87.7586   13.2272 O.2     1  UNL1       -0.2744
      3 N          62.5111   90.0831   13.1281 N.am    1  UNL1       -0.2639
      4 H          62.4803   91.0318   13.3894 H       1  UNL1        0.1567
      5 C          61.4493   89.5170   12.2327 C.ar    1  UNL1        0.1655
      6 N          61.6804   88.6606   11.0230 N.ar    1  UNL1       -0.2239
      7 C          60.3438   88.3221   10.4324 C.ar    1  UNL1        0.0913
      8 C          59.2865   88.9692   11.2770 C.ar    1  UNL1        0.0573
      9 S          59.9697   89.7076   12.3897 S.2     1  UNL1       -0.0508
     10 C          60.1062   87.4837    9.2115 C.ar    1  UNL1        0.0403
     11 C          58.8579   87.4711    8.3799 C.ar    1  UNL1        0.1021
     12 N          59.0553   86.4902    7.2624 N.ar    1  UNL1       -0.2269
     13 C          60.4257   85.8967    7.4032 C.ar    1  UNL1        0.1406
     14 N          61.1660   84.8765    6.5902 N.ar    1  UNL1       -0.3374
     15 C          62.5558   84.4702    6.9819 C.ar    1  UNL1        0.0735
     16 C          63.2052   85.0842    8.1865 C.ar    1  UNL1        0.0186
     17 C          62.4649   86.1044    8.9995 C.ar    1  UNL1        0.0046
     18 C          61.0751   86.5107    8.6079 C.ar    1  UNL1        0.0370
     19 H          60.7397   84.4735    5.7995 H       1  UNL1        0.1674
     20 C          64.6820   89.7702   14.5207 C.3     1  UNL1        0.1117
     21 C          65.6495   93.0850   12.5647 C.ar    1  UNL1        0.0641
     22 C          66.5343   93.7598   13.5706 C.ar    1  UNL1        0.0158
     23 C          66.8016   93.1047   14.8933 C.ar    1  UNL1        0.0010
     24 C          66.1841   91.7748   15.2100 C.ar    1  UNL1       -0.0037
     25 C          65.2994   91.1000   14.2040 C.ar    1  UNL1       -0.0118
     26 C          65.0321   91.7552   12.8813 C.ar    1  UNL1        0.0121
     27 N          65.3822   93.7401   11.2420 N.pl3   1  UNL1       -0.2188
     28 H          64.4842   94.0880   11.0376 H       1  UNL1        0.1734
     29 S          66.4830   93.8649   10.2308 S.O2    1  UNL1        0.0522
     30 O          66.2675   95.3486   10.1795 O.2     1  UNL1       -0.1545
     31 O          66.6986   92.3814   10.2822 O.2     1  UNL1       -0.1545
     32 C          68.6323   92.9222    9.1162 C.3     1  UNL1        0.0273
     33 C          67.5839   93.9900    9.2196 C.3     1  UNL1        0.1489
     34 C          67.6363   95.1829    8.3117 C.3     1  UNL1        0.0273
@<TRIPOS>BOND
     1    32    33    1
     2    33    34    1
     3    33    29    1
     4    29    30    2
     5    29    31    2
     6    29    27    1
     7    27    21    1
     8    21    22   ar
     9    22    23   ar
    10    23    24   ar
    11    24    25   ar
    12    25    20    1
    13    20     1    1
    14     1     2    2
    15     1     3   am
    16     3     5    1
    17     5     6   ar
    18     6     7   ar
    19     7    10    1
    20    10    11   ar
    21    11    12   ar
    22    12    13   ar
    23    13    14   ar
    24    14    15   ar
    25    15    16   ar
    26    16    17   ar
    27    17    18   ar
    28     7     8   ar
    29     8     9   ar
    30    25    26   ar
    31    26    21   ar
    32     9     5   ar
    33    18    10   ar
    34    18    13    1
    35    27    28    1
    36     3     4    1
    37    14    19    1
@<TRIPOS>MOLECULE
*****
 34 37 0 0 0
SMALL
GASTEIGER

@<TRIPOS>ATOM
      1 C          62.1520   86.6184   10.5364 C.2     1  UNL1        0.2320
      2 O          62.7749   86.9148    9.2045 O.2     1  UNL1       -0.2744
      3 N          62.0377   87.7009   11.5684 N.am    1  UNL1       -0.2639
      4 H          61.6289   87.5064   12.4426 H       1  UNL1        0.1567
      5 C          62.5464   89.0797   11.2686 C.ar    1  UNL1        0.1655
      6 N          63.6843   89.7696   11.9608 N.ar    1  UNL1       -0.2239
      7 C          63.8478   91.1270   11.3440 C.ar    1  UNL1        0.0913
      8 C          62.8109   91.2761   10.2703 C.ar    1  UNL1        0.0573
      9 S          62.0066   90.0108   10.2237 S.2     1  UNL1       -0.0508
     10 C          64.8688   92.1550   11.7324 C.ar    1  UNL1        0.0403
     11 C          65.4477   93.2064   10.8328 C.ar    1  UNL1        0.1021
     12 N          66.4269   94.0132   11.6331 N.ar    1  UNL1       -0.2269
     13 C          66.4530   93.4603   13.0273 C.ar    1  UNL1        0.1406
     14 N          67.2293   93.8543   14.2488 N.ar    1  UNL1       -0.3374
     15 C          67.0426   93.0998   15.5317 C.ar    1  UNL1        0.0735
     16 C          66.0796   91.9513   15.5930 C.ar    1  UNL1        0.0186
     17 C          65.3034   91.5574   14.3715 C.ar    1  UNL1        0.0046
     18 C          65.4901   92.3119   13.0886 C.ar    1  UNL1        0.0370
     19 H          67.8613   94.6080   14.2085 H       1  UNL1        0.1674
     20 C          61.6432   85.2395   10.8363 C.3     1  UNL1        0.1117
     21 C          63.7730   83.7992   13.8595 C.ar    1  UNL1        0.0641
     22 C          64.1043   82.4295   13.3457 C.ar    1  UNL1        0.0158
     23 C          63.6153   81.9964   11.9954 C.ar    1  UNL1        0.0010
     24 C          62.7949   82.9331   11.1589 C.ar    1  UNL1       -0.0037
     25 C          62.4636   84.3029   11.6728 C.ar    1  UNL1       -0.0118
     26 C          62.9527   84.7359   13.0231 C.ar    1  UNL1        0.0121
     27 N          64.2621   84.2324   15.2098 N.pl3   1  UNL1       -0.2188
     28 H          64.8213   83.6269   15.7483 H       1  UNL1        0.1734
     29 S          63.8992   85.5879   15.7396 S.O2    1  UNL1        0.0522
     30 O          65.1150   86.1705   15.0818 O.2     1  UNL1       -0.1545
     31 O          62.6834   85.0055   16.3972 O.2     1  UNL1       -0.1545
     32 C          63.9071   88.1747   15.4967 C.3     1  UNL1        0.0273
     33 C          63.5363   86.9436   16.2693 C.3     1  UNL1        0.1489
     34 C          62.8027   87.0681   17.5717 C.3     1  UNL1        0.0273
@<TRIPOS>BOND
     1    32    33    1
     2    33    34    1
     3    33    29    1
     4    29    30    2
     5    29    31    2
     6    29    27    1
     7    27    21    1
     8    21    22   ar
     9    22    23   ar
    10    23    24   ar
    11    24    25   ar
    12    25    20    1
    13    20     1    1
    14     1     2    2
    15     1     3   am
    16     3     5    1
    17     5     6   ar
    18     6     7   ar
    19     7    10    1
    20    10    11   ar
    21    11    12   ar
    22    12    13   ar
    23    13    14   ar
    24    14    15   ar
    25    15    16   ar
    26    16    17   ar
    27    17    18   ar
    28     7     8   ar
    29     8     9   ar
    30    25    26   ar
    31    26    21   ar
    32     9     5   ar
    33    18    10   ar
    34    18    13    1
    35    27    28    1
    36     3     4    1
    37    14    19    1
@<TRIPOS>MOLECULE
*****
 34 37 0 0 0
SMALL
GASTEIGER

@<TRIPOS>ATOM
      1 C          63.8047   88.9669   14.0680 C.2     1  UNL1        0.2320
      2 O          64.3136   87.6395   14.5468 O.2     1  UNL1       -0.2744
      3 N          63.0084   89.0516   12.7997 N.am    1  UNL1       -0.2639
      4 H          62.6745   89.9228   12.4854 H       1  UNL1        0.1567
      5 C          62.7209   87.8092   12.0101 C.ar    1  UNL1        0.1655
      6 N          63.2668   86.4404   12.2903 N.ar    1  UNL1       -0.2239
      7 C          62.7203   85.5025   11.2551 C.ar    1  UNL1        0.0913
      8 C          61.8366   86.2916   10.3351 C.ar    1  UNL1        0.0573
      9 S          61.8370   87.7171   10.8017 S.2     1  UNL1       -0.0508
     10 C          63.0071   84.0334   11.1571 C.ar    1  UNL1        0.0403
     11 C          63.6365   83.3340    9.9890 C.ar    1  UNL1        0.1021
     12 N          63.7332   81.8742   10.3200 N.ar    1  UNL1       -0.2269
     13 C          63.1635   81.6714   11.6927 C.ar    1  UNL1        0.1406
     14 N          62.9955   80.4440   12.5384 N.ar    1  UNL1       -0.3374
     15 C          62.3787   80.5511   13.9015 C.ar    1  UNL1        0.0735
     16 C          61.9300   81.8857   14.4189 C.ar    1  UNL1        0.0186
     17 C          62.0980   83.1130   13.5732 C.ar    1  UNL1        0.0046
     18 C          62.7148   83.0059   12.2101 C.ar    1  UNL1        0.0370
     19 H          63.2900   79.5681   12.1989 H       1  UNL1        0.1674
     20 C          64.0923   90.2094   14.8575 C.3     1  UNL1        0.1117
     21 C          65.9800   93.0314   12.8026 C.ar    1  UNL1        0.0641
     22 C          67.3097   93.0460   13.4966 C.ar    1  UNL1        0.0158
     23 C          67.5670   92.1150   14.6442 C.ar    1  UNL1        0.0010
     24 C          66.4945   91.1694   15.0979 C.ar    1  UNL1       -0.0037
     25 C          65.1647   91.1549   14.4039 C.ar    1  UNL1       -0.0118
     26 C          64.9075   92.0860   13.2562 C.ar    1  UNL1        0.0121
     27 N          65.7228   93.9624   11.6549 N.pl3   1  UNL1       -0.2188
     28 H          64.9616   94.5859   11.6879 H       1  UNL1        0.1734
     29 S          66.6252   93.9434   10.4569 S.O2    1  UNL1        0.0522
     30 O          67.0765   95.3382   10.7748 O.2     1  UNL1       -0.1545
     31 O          66.1741   92.5486   10.1391 O.2     1  UNL1       -0.1545
     32 C          67.4562   95.0306    8.2484 C.3     1  UNL1        0.0273
     33 C          67.5278   93.9245    9.2589 C.3     1  UNL1        0.1489
     34 C          68.5019   92.7993    9.0716 C.3     1  UNL1        0.0273
@<TRIPOS>BOND
     1    32    33    1
     2    33    34    1
     3    33    29    1
     4    29    30    2
     5    29    31    2
     6    29    27    1
     7    27    21    1
     8    21    22   ar
     9    22    23   ar
    10    23    24   ar
    11    24    25   ar
    12    25    20    1
    13    20     1    1
    14     1     2    2
    15     1     3   am
    16     3     5    1
    17     5     6   ar
    18     6     7   ar
    19     7    10    1
    20    10    11   ar
    21    11    12   ar
    22    12    13   ar
    23    13    14   ar
    24    14    15   ar
    25    15    16   ar
    26    16    17   ar
    27    17    18   ar
    28     7     8   ar
    29     8     9   ar
    30    25    26   ar
    31    26    21   ar
    32     9     5   ar
    33    18    10   ar
    34    18    13    1
    35    27    28    1
    36     3     4    1
    37    14    19    1
@<TRIPOS>MOLECULE
*****
 34 37 0 0 0
SMALL
GASTEIGER

@<TRIPOS>ATOM
      1 C          63.8211   89.4754   15.0634 C.2     1  UNL1        0.2320
      2 O          62.4835   89.3523   15.7311 O.2     1  UNL1       -0.2744
      3 N          64.5915   88.2423   14.6947 N.am    1  UNL1       -0.2639
      4 H          65.4694   88.3231   14.2565 H       1  UNL1        0.1567
      5 C          64.0246   86.8863   14.9937 C.ar    1  UNL1        0.1655
      6 N          63.7606   85.8006   13.9929 N.ar    1  UNL1       -0.2239
      7 C          63.1949   84.6211   14.7267 C.ar    1  UNL1        0.0913
      8 C          63.1091   84.9777   16.1812 C.ar    1  UNL1        0.0573
      9 S          63.6218   86.3776   16.3462 S.2     1  UNL1       -0.0508
     10 C          62.7866   83.3143   14.1137 C.ar    1  UNL1        0.0403
     11 C          61.9204   82.2716   14.7560 C.ar    1  UNL1        0.1021
     12 N          61.7713   81.1338   13.7901 N.ar    1  UNL1       -0.2269
     13 C          62.5453   81.4732   12.5508 C.ar    1  UNL1        0.1406
     14 N          62.7598   80.7293   11.2661 N.ar    1  UNL1       -0.3374
     15 C          63.6017   81.3331   10.1814 C.ar    1  UNL1        0.0735
     16 C          64.2292   82.6807   10.3815 C.ar    1  UNL1        0.0186
     17 C          64.0147   83.4247   11.6662 C.ar    1  UNL1        0.0046
     18 C          63.1728   82.8209   12.7509 C.ar    1  UNL1        0.0370
     19 H          62.3479   79.8448   11.1348 H       1  UNL1        0.1674
     20 C          64.3881   90.8315   14.7643 C.3     1  UNL1        0.1117
     21 C          63.5096   91.3489   10.9289 C.ar    1  UNL1        0.0641
     22 C          64.5963   92.2961   10.5144 C.ar    1  UNL1        0.0158
     23 C          65.6136   92.7552   11.5165 C.ar    1  UNL1        0.0010
     24 C          65.5442   92.2670   12.9332 C.ar    1  UNL1       -0.0037
     25 C          64.4575   91.3197   13.3477 C.ar    1  UNL1       -0.0118
     26 C          63.4401   90.8606   12.3454 C.ar    1  UNL1        0.0121
     27 N          62.4922   90.8898    9.9267 N.pl3   1  UNL1       -0.2188
     28 H          62.4960   91.2623    9.0154 H       1  UNL1        0.1734
     29 S          61.4691   89.8632   10.3130 S.O2    1  UNL1        0.0522
     30 O          62.4495   88.7703   10.0053 O.2     1  UNL1       -0.1545
     31 O          60.4887   90.9559   10.6208 O.2     1  UNL1       -0.1545
     32 C          60.3390   87.5560    9.9254 C.3     1  UNL1        0.0273
     33 C          60.4460   88.8364   10.6993 C.3     1  UNL1        0.1489
     34 C          59.5299   89.0902   11.8597 C.3     1  UNL1        0.0273
@<TRIPOS>BOND
     1    32    33    1
     2    33    34    1
     3    33    29    1
     4    29    30    2
     5    29    31    2
     6    29    27    1
     7    27    21    1
     8    21    22   ar
     9    22    23   ar
    10    23    24   ar
    11    24    25   ar
    12    25    20    1
    13    20     1    1
    14     1     2    2
    15     1     3   am
    16     3     5    1
    17     5     6   ar
    18     6     7   ar
    19     7    10    1
    20    10    11   ar
    21    11    12   ar
    22    12    13   ar
    23    13    14   ar
    24    14    15   ar
    25    15    16   ar
    26    16    17   ar
    27    17    18   ar
    28     7     8   ar
    29     8     9   ar
    30    25    26   ar
    31    26    21   ar
    32     9     5   ar
    33    18    10   ar
    34    18    13    1
    35    27    28    1
    36     3     4    1
    37    14    19    1
@<TRIPOS>MOLECULE
*****
 34 37 0 0 0
SMALL
GASTEIGER

@<TRIPOS>ATOM
      1 C          64.6010   85.9711   14.8833 C.2     1  UNL1        0.2320
      2 O          66.0026   86.3824   15.2244 O.2     1  UNL1       -0.2744
      3 N          63.5052   86.9949   14.8533 N.am    1  UNL1       -0.2639
      4 H          62.5852   86.7250   14.6295 H       1  UNL1        0.1567
      5 C          63.8109   88.4300   15.1644 C.ar    1  UNL1        0.1655
      6 N          64.7095   89.3321   14.3713 N.ar    1  UNL1       -0.2239
      7 C          64.7257   90.6747   15.0398 C.ar    1  UNL1        0.0913
      8 C          63.8372   90.6025   16.2462 C.ar    1  UNL1        0.0573
      9 S          63.2718   89.2153   16.3232 S.2     1  UNL1       -0.0508
     10 C          65.4953   91.8782   14.5824 C.ar    1  UNL1        0.0403
     11 C          66.3565   92.7537   15.4437 C.ar    1  UNL1        0.1021
     12 N          66.9323   93.8341   14.5770 N.ar    1  UNL1       -0.2269
     13 C          66.4270   93.6263   13.1800 C.ar    1  UNL1        0.1406
     14 N          66.6609   94.3816   11.9054 N.ar    1  UNL1       -0.3374
     15 C          66.0066   93.9280   10.6341 C.ar    1  UNL1        0.0735
     16 C          65.1185   92.7192   10.6374 C.ar    1  UNL1        0.0186
     17 C          64.8847   91.9639   11.9121 C.ar    1  UNL1        0.0046
     18 C          65.5389   92.4174   13.1834 C.ar    1  UNL1        0.0370
     19 H          67.2437   95.1750   11.9032 H       1  UNL1        0.1674
     20 C          64.2952   84.5359   14.5723 C.3     1  UNL1        0.1117
     21 C          62.5946   84.5550   10.9865 C.ar    1  UNL1        0.0641
     22 C          63.2024   83.3261   10.3779 C.ar    1  UNL1        0.0158
     23 C          64.1744   82.5003   11.1675 C.ar    1  UNL1        0.0010
     24 C          64.5387   82.9036   12.5657 C.ar    1  UNL1       -0.0037
     25 C          63.9309   84.1326   13.1742 C.ar    1  UNL1       -0.0118
     26 C          62.9589   84.9583   12.3845 C.ar    1  UNL1        0.0121
     27 N          61.6226   85.3807   10.1969 N.pl3   1  UNL1       -0.2188
     28 H          60.9472   84.9400    9.6323 H       1  UNL1        0.1734
     29 S          61.6797   86.8780   10.2675 S.O2    1  UNL1        0.0522
     30 O          60.7866   86.8552   11.4725 O.2     1  UNL1       -0.1545
     31 O          62.5728   86.9008    9.0626 O.2     1  UNL1       -0.1545
     32 C          62.6094   89.0453   11.3579 C.3     1  UNL1        0.0273
     33 C          61.7368   88.3753   10.3383 C.3     1  UNL1        0.1489
     34 C          60.9212   89.2025    9.3893 C.3     1  UNL1        0.0273
@<TRIPOS>BOND
     1    32    33    1
     2    33    34    1
     3    33    29    1
     4    29    30    2
     5    29    31    2
     6    29    27    1
     7    27    21    1
     8    21    22   ar
     9    22    23   ar
    10    23    24   ar
    11    24    25   ar
    12    25    20    1
    13    20     1    1
    14     1     2    2
    15     1     3   am
    16     3     5    1
    17     5     6   ar
    18     6     7   ar
    19     7    10    1
    20    10    11   ar
    21    11    12   ar
    22    12    13   ar
    23    13    14   ar
    24    14    15   ar
    25    15    16   ar
    26    16    17   ar
    27    17    18   ar
    28     7     8   ar
    29     8     9   ar
    30    25    26   ar
    31    26    21   ar
    32     9     5   ar
    33    18    10   ar
    34    18    13    1
    35    27    28    1
    36     3     4    1
    37    14    19    1
@<TRIPOS>MOLECULE
*****
 34 37 0 0 0
SMALL
GASTEIGER

@<TRIPOS>ATOM
      1 C          63.4830   89.6673   14.6580 C.2     1  UNL1        0.2320
      2 O          62.4691   89.3926   15.7287 O.2     1  UNL1       -0.2744
      3 N          64.2313   88.5320   14.0247 N.am    1  UNL1       -0.2639
      4 H          64.8967   88.7123   13.3219 H       1  UNL1        0.1567
      5 C          63.9657   87.1221   14.4620 C.ar    1  UNL1        0.1655
      6 N          63.4936   86.0008   13.5846 N.ar    1  UNL1       -0.2239
      7 C          63.3617   84.7715   14.4338 C.ar    1  UNL1        0.0913
      8 C          63.7522   85.1329   15.8363 C.ar    1  UNL1        0.0573
      9 S          64.1255   86.5856   15.8537 S.2     1  UNL1       -0.0508
     10 C          62.9173   83.4183   13.9633 C.ar    1  UNL1        0.0403
     11 C          62.0955   82.4383   14.7472 C.ar    1  UNL1        0.1021
     12 N          61.8870   81.2219   13.8947 N.ar    1  UNL1       -0.2269
     13 C          62.5798   81.4500   12.5840 C.ar    1  UNL1        0.1406
     14 N          62.7132   80.5971   11.3573 N.ar    1  UNL1       -0.3374
     15 C          63.4832   81.1017   10.1731 C.ar    1  UNL1        0.0735
     16 C          64.1200   82.4591   10.2156 C.ar    1  UNL1        0.0186
     17 C          63.9867   83.3121   11.4422 C.ar    1  UNL1        0.0046
     18 C          63.2166   82.8075   12.6264 C.ar    1  UNL1        0.0370
     19 H          62.2952   79.7062   11.3295 H       1  UNL1        0.1674
     20 C          63.7486   91.0773   14.2206 C.3     1  UNL1        0.1117
     21 C          66.6667   92.3990   11.8780 C.ar    1  UNL1        0.0641
     22 C          67.8493   92.2544   12.7893 C.ar    1  UNL1        0.0158
     23 C          67.6651   91.7174   14.1777 C.ar    1  UNL1        0.0010
     24 C          66.2981   91.3251   14.6549 C.ar    1  UNL1       -0.0037
     25 C          65.1155   91.4697   13.7435 C.ar    1  UNL1       -0.0118
     26 C          65.2998   92.0067   12.3550 C.ar    1  UNL1        0.0121
     27 N          66.8510   92.9360   10.4896 N.pl3   1  UNL1       -0.2188
     28 H          66.9906   92.3169    9.7369 H       1  UNL1        0.1734
     29 S          66.8224   94.4161   10.2479 S.O2    1  UNL1        0.0522
     30 O          65.4217   94.4762   10.7815 O.2     1  UNL1       -0.1545
     31 O          68.2230   94.3561    9.7144 O.2     1  UNL1       -0.1545
     32 C          66.1196   96.8042   10.9918 C.3     1  UNL1        0.0273
     33 C          66.7938   95.8963   10.0063 C.3     1  UNL1        0.1489
     34 C          67.4394   96.4684    8.7792 C.3     1  UNL1        0.0273
@<TRIPOS>BOND
     1    32    33    1
     2    33    34    1
     3    33    29    1
     4    29    30    2
     5    29    31    2
     6    29    27    1
     7    27    21    1
     8    21    22   ar
     9    22    23   ar
    10    23    24   ar
    11    24    25   ar
    12    25    20    1
    13    20     1    1
    14     1     2    2
    15     1     3   am
    16     3     5    1
    17     5     6   ar
    18     6     7   ar
    19     7    10    1
    20    10    11   ar
    21    11    12   ar
    22    12    13   ar
    23    13    14   ar
    24    14    15   ar
    25    15    16   ar
    26    16    17   ar
    27    17    18   ar
    28     7     8   ar
    29     8     9   ar
    30    25    26   ar
    31    26    21   ar
    32     9     5   ar
    33    18    10   ar
    34    18    13    1
    35    27    28    1
    36     3     4    1
    37    14    19    1
@<TRIPOS>MOLECULE
*****
 34 37 0 0 0
SMALL
GASTEIGER

@<TRIPOS>ATOM
      1 C          63.4770   90.0521   14.4173 C.2     1  UNL1        0.2320
      2 O          63.8285   88.6142   14.6603 O.2     1  UNL1       -0.2744
      3 N          62.6526   90.4311   13.2229 N.am    1  UNL1       -0.2639
      4 H          62.4219   91.3748   13.0634 H       1  UNL1        0.1567
      5 C          62.1797   89.3724   12.2715 C.ar    1  UNL1        0.1655
      6 N          62.9605   88.1695   11.8318 N.ar    1  UNL1       -0.2239
      7 C          62.1063   87.3842   10.8813 C.ar    1  UNL1        0.0913
      8 C          60.7974   88.1017   10.7335 C.ar    1  UNL1        0.0573
      9 S          60.8427   89.3304   11.5927 S.2     1  UNL1       -0.0508
     10 C          62.4930   86.1059   10.1985 C.ar    1  UNL1        0.0403
     11 C          62.5381   85.8764    8.7168 C.ar    1  UNL1        0.1021
     12 N          62.9755   84.4613    8.4801 N.ar    1  UNL1       -0.2269
     13 C          63.2007   83.8161    9.8154 C.ar    1  UNL1        0.1406
     14 N          63.6388   82.4345   10.2014 N.ar    1  UNL1       -0.3374
     15 C          63.7787   82.0692   11.6495 C.ar    1  UNL1        0.0735
     16 C          63.4805   83.0857   12.7116 C.ar    1  UNL1        0.0186
     17 C          63.0424   84.4673   12.3255 C.ar    1  UNL1        0.0046
     18 C          62.9025   84.8325   10.8774 C.ar    1  UNL1        0.0370
     19 H          63.8345   81.7673    9.5044 H       1  UNL1        0.1674
     20 C          63.9500   91.1109   15.3687 C.3     1  UNL1        0.1117
     21 C          67.4071   92.1895   13.7454 C.ar    1  UNL1        0.0641
     22 C          68.0629   92.8772   14.9060 C.ar    1  UNL1        0.0158
     23 C          67.3478   92.9761   16.2209 C.ar    1  UNL1        0.0010
     24 C          65.9768   92.3874   16.3751 C.ar    1  UNL1       -0.0037
     25 C          65.3210   91.6997   15.2145 C.ar    1  UNL1       -0.0118
     26 C          66.0362   91.6008   13.8996 C.ar    1  UNL1        0.0121
     27 N          68.1222   92.0906   12.4306 N.pl3   1  UNL1       -0.2188
     28 H          68.9355   91.5413   12.3527 H       1  UNL1        0.1734
     29 S          67.5982   92.8285   11.2344 S.O2    1  UNL1        0.0522
     30 O          68.1877   91.7850   10.3324 O.2     1  UNL1       -0.1545
     31 O          67.0087   93.8720   12.1363 O.2     1  UNL1       -0.1545
     32 C          67.8613   93.5802    8.7613 C.3     1  UNL1        0.0273
     33 C          67.0742   93.5664   10.0381 C.3     1  UNL1        0.1489
     34 C          65.7630   94.2905   10.1188 C.3     1  UNL1        0.0273
@<TRIPOS>BOND
     1    32    33    1
     2    33    34    1
     3    33    29    1
     4    29    30    2
     5    29    31    2
     6    29    27    1
     7    27    21    1
     8    21    22   ar
     9    22    23   ar
    10    23    24   ar
    11    24    25   ar
    12    25    20    1
    13    20     1    1
    14     1     2    2
    15     1     3   am
    16     3     5    1
    17     5     6   ar
    18     6     7   ar
    19     7    10    1
    20    10    11   ar
    21    11    12   ar
    22    12    13   ar
    23    13    14   ar
    24    14    15   ar
    25    15    16   ar
    26    16    17   ar
    27    17    18   ar
    28     7     8   ar
    29     8     9   ar
    30    25    26   ar
    31    26    21   ar
    32     9     5   ar
    33    18    10   ar
    34    18    13    1
    35    27    28    1
    36     3     4    1
    37    14    19    1
@<TRIPOS>MOLECULE
*****
 34 37 0 0 0
SMALL
GASTEIGER

@<TRIPOS>ATOM
      1 C          63.7837   89.1894   14.8803 C.2     1  UNL1        0.2320
      2 O          63.3609   88.1551   15.8811 O.2     1  UNL1       -0.2744
      3 N          63.7629   88.8680   13.4153 N.am    1  UNL1       -0.2639
      4 H          64.0404   89.5468   12.7585 H       1  UNL1        0.1567
      5 C          63.3193   87.5125   12.9511 C.ar    1  UNL1        0.1655
      6 N          63.3864   86.2425   13.7464 N.ar    1  UNL1       -0.2239
      7 C          62.8393   85.1340   12.8969 C.ar    1  UNL1        0.0913
      8 C          62.4340   85.7188   11.5764 C.ar    1  UNL1        0.0573
      9 S          62.7307   87.1888   11.6098 S.2     1  UNL1       -0.0508
     10 C          62.7185   83.6935   13.2974 C.ar    1  UNL1        0.0403
     11 C          62.4541   83.1827   14.6828 C.ar    1  UNL1        0.1021
     12 N          62.4132   81.6844   14.6244 N.ar    1  UNL1       -0.2269
     13 C          62.6524   81.2692   13.2030 C.ar    1  UNL1        0.1406
     14 N          62.7227   79.9208   12.5496 N.ar    1  UNL1       -0.3374
     15 C          62.9817   79.8142   11.0760 C.ar    1  UNL1        0.0735
     16 C          63.1704   81.0559   10.2559 C.ar    1  UNL1        0.0186
     17 C          63.1001   82.4042   10.9093 C.ar    1  UNL1        0.0046
     18 C          62.8411   82.5108   12.3829 C.ar    1  UNL1        0.0370
     19 H          62.5988   79.1059   13.0879 H       1  UNL1        0.1674
     20 C          64.2274   90.5450   15.3446 C.3     1  UNL1        0.1117
     21 C          66.0762   92.9036   12.7429 C.ar    1  UNL1        0.0641
     22 C          67.5063   92.7122   13.1531 C.ar    1  UNL1        0.0158
     23 C          67.8434   91.7983   14.2938 C.ar    1  UNL1        0.0010
     24 C          66.7504   91.0759   15.0244 C.ar    1  UNL1       -0.0037
     25 C          65.3203   91.2674   14.6141 C.ar    1  UNL1       -0.0118
     26 C          64.9832   92.1812   13.4733 C.ar    1  UNL1        0.0121
     27 N          65.7391   93.8174   11.6021 N.pl3   1  UNL1       -0.2188
     28 H          64.9402   94.3908   11.6503 H       1  UNL1        0.1734
     29 S          66.6190   93.8576   10.3880 S.O2    1  UNL1        0.0522
     30 O          66.1864   92.4670   10.0284 O.2     1  UNL1       -0.1545
     31 O          67.0517   95.2481   10.7475 O.2     1  UNL1       -0.1545
     32 C          67.4018   95.0467    8.2146 C.3     1  UNL1        0.0273
     33 C          67.4990   93.8977    9.1739 C.3     1  UNL1        0.1489
     34 C          68.4762   92.7886    8.9190 C.3     1  UNL1        0.0273
@<TRIPOS>BOND
     1    32    33    1
     2    33    34    1
     3    33    29    1
     4    29    30    2
     5    29    31    2
     6    29    27    1
     7    27    21    1
     8    21    22   ar
     9    22    23   ar
    10    23    24   ar
    11    24    25   ar
    12    25    20    1
    13    20     1    1
    14     1     2    2
    15     1     3   am
    16     3     5    1
    17     5     6   ar
    18     6     7   ar
    19     7    10    1
    20    10    11   ar
    21    11    12   ar
    22    12    13   ar
    23    13    14   ar
    24    14    15   ar
    25    15    16   ar
    26    16    17   ar
    27    17    18   ar
    28     7     8   ar
    29     8     9   ar
    30    25    26   ar
    31    26    21   ar
    32     9     5   ar
    33    18    10   ar
    34    18    13    1
    35    27    28    1
    36     3     4    1
    37    14    19    1
