@<TRIPOS>MOLECULE
*****
 34 38 0 0 0
SMALL
GASTEIGER

@<TRIPOS>ATOM
      1 N          64.2554   89.7265   14.5365 N.3     1  UNL1       -0.2688
      2 C          65.4505   90.6192   14.6931 C.3     1  UNL1        0.0745
      3 C          65.7826   91.6216   13.6277 C.3     1  UNL1        0.0449
      4 C          64.9194   91.7311   12.4058 C.3     1  UNL1        0.1372
      5 C          63.7243   90.8384   12.2493 C.3     1  UNL1        0.0449
      6 C          63.3923   89.8360   13.3146 C.3     1  UNL1        0.0745
      7 C          64.1532   91.9545   11.1357 C.2     1  UNL1        0.2458
      8 O          62.9204   91.2147   10.7081 O.2     1  UNL1       -0.2729
      9 N          64.8363   93.0476   10.3684 N.am    1  UNL1       -0.2379
     10 C          66.0246   93.4998   11.1643 C.2     1  UNL1        0.3138
     11 O          66.9917   94.5765   10.7702 O.2     1  UNL1       -0.2518
     12 N          66.0761   92.6862   12.4234 N.am    1  UNL1       -0.2380
     13 H          64.5541   93.4054    9.4957 H       1  UNL1        0.1591
     14 C          67.1036   92.8065   13.5095 C.ar    1  UNL1        0.0556
     15 C          68.3579   91.9861   13.4496 C.ar    1  UNL1        0.0150
     16 C          69.3854   92.1064   14.5357 C.ar    1  UNL1        0.0013
     17 C          69.1586   93.0472   15.6819 C.ar    1  UNL1        0.0001
     18 C          67.9043   93.8676   15.7418 C.ar    1  UNL1        0.0013
     19 C          66.8768   93.7472   14.6557 C.ar    1  UNL1        0.0150
     20 C          63.9233   88.7240   15.6019 C.3     1  UNL1        0.0991
     21 C          63.1727   84.4278   14.4935 C.ar    1  UNL1        0.0000
     22 C          63.6444   85.3994   13.4527 C.ar    1  UNL1       -0.0003
     23 C          63.8946   86.8315   13.8221 C.ar    1  UNL1       -0.0029
     24 C          63.6731   87.2920   15.2325 C.ar    1  UNL1       -0.0061
     25 C          63.2014   86.3203   16.2733 C.ar    1  UNL1       -0.0029
     26 C          62.9512   84.8882   15.9038 C.ar    1  UNL1       -0.0003
     27 C          61.3376   80.9389   14.0351 C.ar    1  UNL1        0.0684
     28 C          62.4219   80.1315   13.3853 C.ar    1  UNL1        0.0103
     29 C          63.7565   80.7562   13.1048 C.ar    1  UNL1        0.0007
     30 C          64.0068   82.1883   13.4743 C.ar    1  UNL1        0.0000
     31 C          62.9224   82.9957   14.1241 C.ar    1  UNL1        0.0007
     32 C          61.5878   82.3710   14.4045 C.ar    1  UNL1        0.0103
     33 N          58.6684   79.6896   14.5960 N.1     1  UNL1       -0.1908
     34 C          60.0030   80.3142   14.3155 C.1     1  UNL1        0.1004
@<TRIPOS>BOND
     1    33    34    3
     2    34    27    1
     3    27    28   ar
     4    28    29   ar
     5    29    30   ar
     6    30    31   ar
     7    31    21    1
     8    21    22   ar
     9    22    23   ar
    10    23    24   ar
    11    24    20    1
    12    20     1    1
    13     1     2    1
    14     2     3    1
    15     3     4    1
    16     4     5    1
    17     5     6    1
    18     4     7    1
    19     7     8    2
    20     7     9   am
    21     9    10   am
    22    10    11    2
    23    10    12   am
    24    12    14    1
    25    14    15   ar
    26    15    16   ar
    27    16    17   ar
    28    17    18   ar
    29    18    19   ar
    30    24    25   ar
    31    25    26   ar
    32    31    32   ar
    33    32    27   ar
    34    26    21   ar
    35     6     1    1
    36    19    14   ar
    37    12     4    1
    38     9    13    1
@<TRIPOS>MOLECULE
*****
 34 38 0 0 0
SMALL
GASTEIGER

@<TRIPOS>ATOM
      1 N          63.4889   90.0871   12.6588 N.3     1  UNL1       -0.2688
      2 C          64.5792   90.9271   12.0624 C.3     1  UNL1        0.0745
      3 C          65.4246   91.7961   12.9456 C.3     1  UNL1        0.0449
      4 C          65.1797   91.8251   14.4252 C.3     1  UNL1        0.1372
      5 C          64.0895   90.9852   15.0216 C.3     1  UNL1        0.0449
      6 C          63.2441   90.1162   14.1384 C.3     1  UNL1        0.0745
      7 C          65.0530   91.9572   15.9140 C.2     1  UNL1        0.2458
      8 O          64.0587   91.2434   16.7810 O.2     1  UNL1       -0.2729
      9 N          66.0954   92.9284   16.3836 N.am    1  UNL1       -0.2379
     10 C          66.8662   93.3966   15.1850 C.2     1  UNL1        0.3138
     11 O          68.0032   94.3748   15.1950 O.2     1  UNL1       -0.2518
     12 N          66.3004   92.7148   13.9747 N.am    1  UNL1       -0.2380
     13 H          66.2469   93.2092   17.3150 H       1  UNL1        0.1591
     14 C          66.7722   92.8915   12.5619 C.ar    1  UNL1        0.0556
     15 C          66.2044   93.9904   11.7134 C.ar    1  UNL1        0.0150
     16 C          66.6763   94.1670   10.3005 C.ar    1  UNL1        0.0013
     17 C          67.7160   93.2448    9.7361 C.ar    1  UNL1        0.0001
     18 C          68.2837   92.1458   10.5846 C.ar    1  UNL1        0.0013
     19 C          67.8118   91.9692   11.9974 C.ar    1  UNL1        0.0150
     20 C          62.6435   89.2180   11.7756 C.3     1  UNL1        0.0991
     21 C          62.6130   84.7579   12.3720 C.ar    1  UNL1        0.0000
     22 C          61.7587   85.3779   11.3064 C.ar    1  UNL1       -0.0003
     23 C          61.7688   86.8646   11.1076 C.ar    1  UNL1       -0.0029
     24 C          62.6333   87.7314   11.9744 C.ar    1  UNL1       -0.0061
     25 C          63.4877   87.1113   13.0401 C.ar    1  UNL1       -0.0029
     26 C          63.4775   85.6245   13.2389 C.ar    1  UNL1       -0.0003
     27 C          62.7571   80.8692   11.5926 C.ar    1  UNL1        0.0684
     28 C          62.5826   80.2977   12.9685 C.ar    1  UNL1        0.0103
     29 C          62.4183   81.2128   14.1455 C.ar    1  UNL1        0.0007
     30 C          62.4284   82.6996   13.9467 C.ar    1  UNL1        0.0000
     31 C          62.6029   83.2712   12.5709 C.ar    1  UNL1        0.0007
     32 C          62.7672   82.3559   11.3938 C.ar    1  UNL1        0.0103
     33 N          63.0857   79.0388    9.2385 N.1     1  UNL1       -0.1908
     34 C          62.9214   79.9540   10.4156 C.1     1  UNL1        0.1004
@<TRIPOS>BOND
     1    33    34    3
     2    34    27    1
     3    27    28   ar
     4    28    29   ar
     5    29    30   ar
     6    30    31   ar
     7    31    21    1
     8    21    22   ar
     9    22    23   ar
    10    23    24   ar
    11    24    20    1
    12    20     1    1
    13     1     2    1
    14     2     3    1
    15     3     4    1
    16     4     5    1
    17     5     6    1
    18     4     7    1
    19     7     8    2
    20     7     9   am
    21     9    10   am
    22    10    11    2
    23    10    12   am
    24    12    14    1
    25    14    15   ar
    26    15    16   ar
    27    16    17   ar
    28    17    18   ar
    29    18    19   ar
    30    24    25   ar
    31    25    26   ar
    32    31    32   ar
    33    32    27   ar
    34    26    21   ar
    35     6     1    1
    36    19    14   ar
    37    12     4    1
    38     9    13    1
@<TRIPOS>MOLECULE
*****
 34 38 0 0 0
SMALL
GASTEIGER

@<TRIPOS>ATOM
      1 N          63.3695   90.5595   12.9150 N.3     1  UNL1       -0.2688
      2 C          64.4865   91.3087   12.2509 C.3     1  UNL1        0.0745
      3 C          65.4742   92.0735   13.0812 C.3     1  UNL1        0.0449
      4 C          65.3449   92.0892   14.5756 C.3     1  UNL1        0.1372
      5 C          64.2279   91.3400   15.2396 C.3     1  UNL1        0.0449
      6 C          63.2402   90.5752   14.4093 C.3     1  UNL1        0.0745
      7 C          65.3433   92.1961   16.0718 C.2     1  UNL1        0.2458
      8 O          64.3537   91.5570   17.0003 O.2     1  UNL1       -0.2729
      9 N          66.5051   93.0545   16.4764 N.am    1  UNL1       -0.2379
     10 C          67.2247   93.4780   15.2302 C.2     1  UNL1        0.3138
     11 O          68.4467   94.3456   15.1695 O.2     1  UNL1       -0.2518
     12 N          66.5077   92.8814   14.0555 N.am    1  UNL1       -0.2380
     13 H          66.7520   93.2972   17.3980 H       1  UNL1        0.1591
     14 C          66.8868   93.0478   12.6138 C.ar    1  UNL1        0.0556
     15 C          67.7900   92.0474   11.9555 C.ar    1  UNL1        0.0150
     16 C          68.1691   92.2139   10.5137 C.ar    1  UNL1        0.0013
     17 C          67.6449   93.3807    9.7302 C.ar    1  UNL1        0.0001
     18 C          66.7416   94.3811   10.3885 C.ar    1  UNL1        0.0013
     19 C          66.3626   94.2146   11.8303 C.ar    1  UNL1        0.0150
     20 C          62.3817   89.7946   12.0847 C.3     1  UNL1        0.0991
     21 C          62.8588   85.3527   11.5441 C.ar    1  UNL1        0.0000
     22 C          62.0650   86.1482   10.5506 C.ar    1  UNL1       -0.0003
     23 C          61.9060   87.6288   10.7307 C.ar    1  UNL1       -0.0029
     24 C          62.5408   88.3140   11.9045 C.ar    1  UNL1       -0.0061
     25 C          63.3346   87.5185   12.8980 C.ar    1  UNL1       -0.0029
     26 C          63.4936   86.0378   12.7178 C.ar    1  UNL1       -0.0003
     27 C          62.5993   81.4466   12.1955 C.ar    1  UNL1        0.0684
     28 C          63.3358   80.9109   11.0036 C.ar    1  UNL1        0.0103
     29 C          63.9133   81.8558    9.9919 C.ar    1  UNL1        0.0007
     30 C          63.7543   83.3364   10.1720 C.ar    1  UNL1        0.0000
     31 C          63.0178   83.8721   11.3639 C.ar    1  UNL1        0.0007
     32 C          62.4403   82.9271   12.3757 C.ar    1  UNL1        0.0103
     33 N          61.4442   79.5567   14.2190 N.1     1  UNL1       -0.1908
     34 C          62.0218   80.5017   13.2072 C.1     1  UNL1        0.1004
@<TRIPOS>BOND
     1    33    34    3
     2    34    27    1
     3    27    28   ar
     4    28    29   ar
     5    29    30   ar
     6    30    31   ar
     7    31    21    1
     8    21    22   ar
     9    22    23   ar
    10    23    24   ar
    11    24    20    1
    12    20     1    1
    13     1     2    1
    14     2     3    1
    15     3     4    1
    16     4     5    1
    17     5     6    1
    18     4     7    1
    19     7     8    2
    20     7     9   am
    21     9    10   am
    22    10    11    2
    23    10    12   am
    24    12    14    1
    25    14    15   ar
    26    15    16   ar
    27    16    17   ar
    28    17    18   ar
    29    18    19   ar
    30    24    25   ar
    31    25    26   ar
    32    31    32   ar
    33    32    27   ar
    34    26    21   ar
    35     6     1    1
    36    19    14   ar
    37    12     4    1
    38     9    13    1
@<TRIPOS>MOLECULE
*****
 34 38 0 0 0
SMALL
GASTEIGER

@<TRIPOS>ATOM
      1 N          63.7022   86.8373   14.6192 N.3     1  UNL1       -0.2688
      2 C          63.2642   86.6184   13.2014 C.3     1  UNL1        0.0745
      3 C          63.2367   85.2315   12.6306 C.3     1  UNL1        0.0449
      4 C          63.6472   84.0636   13.4776 C.3     1  UNL1        0.1372
      5 C          64.0852   84.2825   14.8954 C.3     1  UNL1        0.0449
      6 C          64.1126   85.6693   15.4662 C.3     1  UNL1        0.0745
      7 C          64.0273   82.8051   14.1999 C.2     1  UNL1        0.2458
      8 O          64.5017   82.7126   15.6199 O.2     1  UNL1       -0.2729
      9 N          63.8498   81.6554   13.2529 N.am    1  UNL1       -0.2379
     10 C          63.3599   82.2033   11.9453 C.2     1  UNL1        0.3138
     11 O          63.0498   81.4035   10.7149 O.2     1  UNL1       -0.2518
     12 N          63.2347   83.6916   12.0841 N.am    1  UNL1       -0.2380
     13 H          64.0242   80.7076   13.4543 H       1  UNL1        0.1591
     14 C          62.7774   84.6413   11.0170 C.ar    1  UNL1        0.0556
     15 C          61.6058   85.5438   11.2680 C.ar    1  UNL1        0.0150
     16 C          61.1485   86.4935   10.2008 C.ar    1  UNL1        0.0013
     17 C          61.8627   86.5407    8.8825 C.ar    1  UNL1        0.0001
     18 C          63.0342   85.6383    8.6315 C.ar    1  UNL1        0.0013
     19 C          63.4915   84.6886    9.6987 C.ar    1  UNL1        0.0150
     20 C          63.7297   88.2242   15.1901 C.3     1  UNL1        0.0991
     21 C          65.3986   91.6246   12.7607 C.ar    1  UNL1        0.0000
     22 C          64.2044   90.8641   12.2652 C.ar    1  UNL1       -0.0003
     23 C          63.6481   89.7307   13.0749 C.ar    1  UNL1       -0.0029
     24 C          64.2860   89.3576   14.3803 C.ar    1  UNL1       -0.0061
     25 C          65.4802   90.1181   14.8759 C.ar    1  UNL1       -0.0029
     26 C          66.0365   91.2516   14.0661 C.ar    1  UNL1       -0.0003
     27 C          67.3184   93.6077    9.9092 C.ar    1  UNL1        0.0684
     28 C          67.0676   95.0250   10.3314 C.ar    1  UNL1        0.0103
     29 C          66.2604   95.3089   11.5634 C.ar    1  UNL1        0.0007
     30 C          65.7040   94.1754   12.3732 C.ar    1  UNL1        0.0000
     31 C          65.9549   92.7581   11.9510 C.ar    1  UNL1        0.0007
     32 C          66.7621   92.4742   10.7189 C.ar    1  UNL1        0.0103
     33 N          68.9328   93.0400    7.4451 N.1     1  UNL1       -0.1908
     34 C          68.1256   93.3238    8.6772 C.1     1  UNL1        0.1004
@<TRIPOS>BOND
     1    33    34    3
     2    34    27    1
     3    27    28   ar
     4    28    29   ar
     5    29    30   ar
     6    30    31   ar
     7    31    21    1
     8    21    22   ar
     9    22    23   ar
    10    23    24   ar
    11    24    20    1
    12    20     1    1
    13     1     2    1
    14     2     3    1
    15     3     4    1
    16     4     5    1
    17     5     6    1
    18     4     7    1
    19     7     8    2
    20     7     9   am
    21     9    10   am
    22    10    11    2
    23    10    12   am
    24    12    14    1
    25    14    15   ar
    26    15    16   ar
    27    16    17   ar
    28    17    18   ar
    29    18    19   ar
    30    24    25   ar
    31    25    26   ar
    32    31    32   ar
    33    32    27   ar
    34    26    21   ar
    35     6     1    1
    36    19    14   ar
    37    12     4    1
    38     9    13    1
@<TRIPOS>MOLECULE
*****
 34 38 0 0 0
SMALL
GASTEIGER

@<TRIPOS>ATOM
      1 N          62.1385   86.4269   11.0715 N.3     1  UNL1       -0.2688
      2 C          62.4322   86.1861   12.5226 C.3     1  UNL1        0.0745
      3 C          62.9260   84.8440   12.9751 C.3     1  UNL1        0.0449
      4 C          63.1262   83.7427   11.9765 C.3     1  UNL1        0.1372
      5 C          62.8325   83.9835   10.5255 C.3     1  UNL1        0.0449
      6 C          62.3387   85.3256   10.0729 C.3     1  UNL1        0.0745
      7 C          63.3729   82.5519   11.0983 C.2     1  UNL1        0.2458
      8 O          63.1689   82.4942    9.6134 O.2     1  UNL1       -0.2729
      9 N          63.8593   81.4289   11.9658 N.am    1  UNL1       -0.2379
     10 C          63.9133   81.9258   13.3802 C.2     1  UNL1        0.3138
     11 O          64.3445   81.1320   14.5776 O.2     1  UNL1       -0.2518
     12 N          63.4602   83.3557   13.3868 N.am    1  UNL1       -0.2380
     13 H          64.1007   80.5247   11.6605 H       1  UNL1        0.1591
     14 C          63.3589   84.2429   14.5920 C.ar    1  UNL1        0.0556
     15 C          62.1196   84.2220   15.4368 C.ar    1  UNL1        0.0150
     16 C          62.0184   85.1093   16.6419 C.ar    1  UNL1        0.0013
     17 C          63.1565   86.0175   17.0024 C.ar    1  UNL1        0.0001
     18 C          64.3958   86.0384   16.1577 C.ar    1  UNL1        0.0013
     19 C          64.4970   85.1512   14.9525 C.ar    1  UNL1        0.0150
     20 C          61.6446   87.7690   10.6189 C.3     1  UNL1        0.0991
     21 C          64.1264   91.4482   11.3634 C.ar    1  UNL1        0.0000
     22 C          63.9475   90.4313   12.4516 C.ar    1  UNL1       -0.0003
     23 C          63.1202   89.2050   12.2034 C.ar    1  UNL1       -0.0029
     24 C          62.4718   88.9954   10.8670 C.ar    1  UNL1       -0.0061
     25 C          62.6508   90.0122    9.7789 C.ar    1  UNL1       -0.0029
     26 C          63.4781   91.2387   10.0272 C.ar    1  UNL1       -0.0003
     27 C          66.0129   94.8858   10.7525 C.ar    1  UNL1        0.0684
     28 C          66.6083   95.1273   12.1079 C.ar    1  UNL1        0.0103
     29 C          66.3764   94.1424   13.2152 C.ar    1  UNL1        0.0007
     30 C          65.5490   92.9160   12.9671 C.ar    1  UNL1        0.0000
     31 C          64.9537   92.6745   11.6116 C.ar    1  UNL1        0.0007
     32 C          65.1857   93.6595   10.5043 C.ar    1  UNL1        0.0103
     33 N          66.4769   96.8557    8.5378 N.1     1  UNL1       -0.1908
     34 C          66.2449   95.8707    9.6452 C.1     1  UNL1        0.1004
@<TRIPOS>BOND
     1    33    34    3
     2    34    27    1
     3    27    28   ar
     4    28    29   ar
     5    29    30   ar
     6    30    31   ar
     7    31    21    1
     8    21    22   ar
     9    22    23   ar
    10    23    24   ar
    11    24    20    1
    12    20     1    1
    13     1     2    1
    14     2     3    1
    15     3     4    1
    16     4     5    1
    17     5     6    1
    18     4     7    1
    19     7     8    2
    20     7     9   am
    21     9    10   am
    22    10    11    2
    23    10    12   am
    24    12    14    1
    25    14    15   ar
    26    15    16   ar
    27    16    17   ar
    28    17    18   ar
    29    18    19   ar
    30    24    25   ar
    31    25    26   ar
    32    31    32   ar
    33    32    27   ar
    34    26    21   ar
    35     6     1    1
    36    19    14   ar
    37    12     4    1
    38     9    13    1
@<TRIPOS>MOLECULE
*****
 34 38 0 0 0
SMALL
GASTEIGER

@<TRIPOS>ATOM
      1 N          62.1523   86.2849   10.9497 N.3     1  UNL1       -0.2688
      2 C          62.4768   86.0505   12.3952 C.3     1  UNL1        0.0745
      3 C          62.9364   84.6973   12.8508 C.3     1  UNL1        0.0449
      4 C          63.0715   83.5785   11.8609 C.3     1  UNL1        0.1372
      5 C          62.7470   83.8129   10.4153 C.3     1  UNL1        0.0449
      6 C          62.2874   85.1661    9.9597 C.3     1  UNL1        0.0745
      7 C          63.2532   82.3700   10.9910 C.2     1  UNL1        0.2458
      8 O          63.0072   82.3026    9.5129 O.2     1  UNL1       -0.2729
      9 N          63.7242   81.2408   11.8589 N.am    1  UNL1       -0.2379
     10 C          63.8335   81.7514   13.2652 C.2     1  UNL1        0.3138
     11 O          64.2696   80.9568   14.4602 O.2     1  UNL1       -0.2518
     12 N          63.4302   83.1961   13.2663 N.am    1  UNL1       -0.2380
     13 H          63.9261   80.3252   11.5584 H       1  UNL1        0.1591
     14 C          63.3921   84.0999   14.4628 C.ar    1  UNL1        0.0556
     15 C          62.1793   84.1256   15.3452 C.ar    1  UNL1        0.0150
     16 C          62.1413   85.0294   16.5417 C.ar    1  UNL1        0.0013
     17 C          63.3161   85.9077   16.8559 C.ar    1  UNL1        0.0001
     18 C          64.5288   85.8820   15.9736 C.ar    1  UNL1        0.0013
     19 C          64.5668   84.9782   14.7771 C.ar    1  UNL1        0.0150
     20 C          61.6927   87.6381   10.4940 C.3     1  UNL1        0.0991
     21 C          64.1358   91.2897   11.4669 C.ar    1  UNL1        0.0000
     22 C          63.4957   91.1534   10.1172 C.ar    1  UNL1       -0.0003
     23 C          62.6813   89.9362    9.7929 C.ar    1  UNL1       -0.0029
     24 C          62.5070   88.8553   10.8183 C.ar    1  UNL1       -0.0061
     25 C          63.1472   88.9916   12.1680 C.ar    1  UNL1       -0.0029
     26 C          63.9616   90.2089   12.4923 C.ar    1  UNL1       -0.0003
     27 C          66.5101   93.8034   13.4148 C.ar    1  UNL1        0.0684
     28 C          66.5790   94.9413   12.4399 C.ar    1  UNL1        0.0103
     29 C          65.8335   94.8621   11.1407 C.ar    1  UNL1        0.0007
     30 C          65.0191   93.6448   10.8164 C.ar    1  UNL1        0.0000
     31 C          64.9502   92.5069   11.7912 C.ar    1  UNL1        0.0007
     32 C          65.6957   92.5862   13.0905 C.ar    1  UNL1        0.0103
     33 N          68.0011   93.9618   16.0132 N.1     1  UNL1       -0.1908
     34 C          67.2556   93.8826   14.7139 C.1     1  UNL1        0.1004
@<TRIPOS>BOND
     1    33    34    3
     2    34    27    1
     3    27    28   ar
     4    28    29   ar
     5    29    30   ar
     6    30    31   ar
     7    31    21    1
     8    21    22   ar
     9    22    23   ar
    10    23    24   ar
    11    24    20    1
    12    20     1    1
    13     1     2    1
    14     2     3    1
    15     3     4    1
    16     4     5    1
    17     5     6    1
    18     4     7    1
    19     7     8    2
    20     7     9   am
    21     9    10   am
    22    10    11    2
    23    10    12   am
    24    12    14    1
    25    14    15   ar
    26    15    16   ar
    27    16    17   ar
    28    17    18   ar
    29    18    19   ar
    30    24    25   ar
    31    25    26   ar
    32    31    32   ar
    33    32    27   ar
    34    26    21   ar
    35     6     1    1
    36    19    14   ar
    37    12     4    1
    38     9    13    1
