@<TRIPOS>MOLECULE
*****
 41 44 0 0 0
SMALL
GASTEIGER

@<TRIPOS>ATOM
      1 C          64.2988   87.4061   15.3090 C.3     1  UNL1        0.0889
      2 C          63.2727   87.0826   16.3542 C.3     1  UNL1        0.0383
      3 C          63.1633   85.5897   16.4500 C.3     1  UNL1        0.0739
      4 N          64.1219   84.9905   15.4639 N.3     1  UNL1       -0.2700
      5 C          64.8236   86.1131   14.7587 C.3     1  UNL1        0.0919
      6 O          62.3480   89.6824   15.4228 O.2     1  UNL1       -0.2733
      7 C          63.7499   89.9193   14.9448 C.2     1  UNL1        0.2425
      8 N          64.7253   88.7812   14.8879 N.am    1  UNL1       -0.3032
      9 H          65.6454   88.9367   14.5741 H       1  UNL1        0.1495
     10 C          64.1764   91.2943   14.5237 C.3     1  UNL1        0.1759
     11 N          64.9554   91.4826   13.2557 N.am    1  UNL1       -0.2931
     12 C          65.8378   92.6840   13.0889 C.2     1  UNL1        0.2462
     13 O          65.9413   93.6972   14.1901 O.2     1  UNL1       -0.2701
     14 H          64.8875   90.8176   12.5329 H       1  UNL1        0.1502
     15 C          66.6168   92.8722   11.8209 C.ar    1  UNL1        0.0533
     16 C          67.5463   91.7955   11.3448 C.ar    1  UNL1        0.0045
     17 C          68.3252   91.9837   10.0769 C.ar    1  UNL1        0.0001
     18 C          68.1747   93.2487    9.2850 C.ar    1  UNL1        0.0039
     19 C          67.2453   94.3255    9.7611 C.ar    1  UNL1        0.0716
     20 C          66.4663   94.1372   11.0290 C.ar    1  UNL1        0.0084
     21 C          67.0948   95.5905    8.9692 C.3     1  UNL1        0.4186
     22 F          66.9443   96.8555    8.1773 F       1  UNL1       -0.1659
     23 F          67.1498   96.3906   10.2368 F       1  UNL1       -0.1659
     24 F          67.0397   94.7905    7.7016 F       1  UNL1       -0.1659
     25 C          64.3402   83.5258   15.2250 C.3     1  UNL1        0.0897
     26 C          63.5786   82.8209   14.1419 C.3     1  UNL1        0.0897
     27 N          63.3141   83.5139   12.8382 N.3     1  UNL1       -0.2686
     28 C          62.4644   84.7495   12.8045 C.3     1  UNL1        0.0939
     29 C          62.1998   85.4426   11.5007 C.3     1  UNL1        0.1110
     30 N          62.7851   84.8999   10.2307 N.am    1  UNL1       -0.2732
     31 C          62.5206   85.5930    8.9269 C.2     1  UNL1        0.2499
     32 O          63.1059   85.0503    7.6568 O.2     1  UNL1       -0.2699
     33 C          63.6349   83.6643   10.2644 C.3     1  UNL1        0.1110
     34 C          63.8994   82.9713   11.5681 C.3     1  UNL1        0.0939
     35 C          61.6708   86.8286    8.8933 C.ar    1  UNL1        0.0641
     36 C          62.1098   88.0609    9.6270 C.ar    1  UNL1        0.0054
     37 C          61.2600   89.2965    9.5934 C.ar    1  UNL1        0.0002
     38 C          59.9713   89.2997    8.8259 C.ar    1  UNL1        0.0009
     39 C          59.5323   88.0673    8.0921 C.ar    1  UNL1        0.0115
     40 C          60.3821   86.8317    8.1257 C.ar    1  UNL1        0.0620
     41 CL         59.9431   85.5994    7.3919 Cl      1  UNL1       -0.0821
@<TRIPOS>BOND
     1     6     7    2
     2     7    10    1
     3    10    11    1
     4    11    12   am
     5    12    13    2
     6    12    15    1
     7    15    16   ar
     8    16    17   ar
     9    17    18   ar
    10    18    19   ar
    11    19    21    1
    12    21    22    1
    13    21    23    1
    14    21    24    1
    15    19    20   ar
    16     7     8   am
    17     1     8    1
    18     1     2    1
    19     2     3    1
    20     3     4    1
    21     4    25    1
    22    25    26    1
    23    26    27    1
    24    27    28    1
    25    28    29    1
    26    29    30    1
    27    30    31   am
    28    31    32    2
    29    31    35    1
    30    35    36   ar
    31    36    37   ar
    32    37    38   ar
    33    38    39   ar
    34    39    40   ar
    35    40    41    1
    36    30    33    1
    37    33    34    1
    38     4     5    1
    39    20    15   ar
    40     5     1    1
    41    34    27    1
    42    40    35   ar
    43    11    14    1
    44     8     9    1
@<TRIPOS>MOLECULE
*****
 41 44 0 0 0
SMALL
GASTEIGER

@<TRIPOS>ATOM
      1 C          63.5407   87.3105   16.0346 C.3     1  UNL1        0.0889
      2 C          62.4608   86.6207   16.8143 C.3     1  UNL1        0.0383
      3 C          62.6232   85.1419   16.6225 C.3     1  UNL1        0.0739
      4 N          63.8035   84.9178   15.7243 N.3     1  UNL1       -0.2700
      5 C          64.3705   86.2581   15.3609 C.3     1  UNL1        0.0919
      6 O          63.8250   88.6247   13.3528 O.2     1  UNL1       -0.2733
      7 C          63.8956   89.4497   14.6035 C.2     1  UNL1        0.2425
      8 N          63.7534   88.7927   15.9444 N.am    1  UNL1       -0.3032
      9 H          63.7997   89.3342   16.7653 H       1  UNL1        0.1495
     10 C          64.1083   90.9318   14.5133 C.3     1  UNL1        0.1759
     11 N          64.6307   91.5387   13.2449 N.am    1  UNL1       -0.2931
     12 C          65.5808   92.6979   13.3039 C.2     1  UNL1        0.2462
     13 O          66.0086   93.2502   14.6313 O.2     1  UNL1       -0.2701
     14 H          64.3499   91.1762   12.3737 H       1  UNL1        0.1502
     15 C          66.1031   93.3048   12.0355 C.ar    1  UNL1        0.0533
     16 C          65.7103   94.7016   11.6551 C.ar    1  UNL1        0.0045
     17 C          66.2326   95.3085   10.3867 C.ar    1  UNL1        0.0001
     18 C          67.1479   94.5186    9.4987 C.ar    1  UNL1        0.0039
     19 C          67.5407   93.1218    9.8791 C.ar    1  UNL1        0.0716
     20 C          67.0184   92.5150   11.1475 C.ar    1  UNL1        0.0084
     21 C          68.4559   92.3320    8.9911 C.3     1  UNL1        0.4186
     22 F          69.3711   91.5421    8.1032 F       1  UNL1       -0.1659
     23 F          68.5040   91.2367   10.0149 F       1  UNL1       -0.1659
     24 F          68.4079   93.4272    7.9674 F       1  UNL1       -0.1659
     25 C          64.3251   83.5870   15.2693 C.3     1  UNL1        0.0897
     26 C          63.6359   82.8512   14.1587 C.3     1  UNL1        0.0897
     27 N          63.3592   83.5450   12.8579 N.3     1  UNL1       -0.2686
     28 C          62.5151   84.7847   12.8338 C.3     1  UNL1        0.0939
     29 C          62.2384   85.4786   11.5329 C.3     1  UNL1        0.1110
     30 N          62.8059   84.9326   10.2563 N.am    1  UNL1       -0.2732
     31 C          62.5292   85.6265    8.9554 C.2     1  UNL1        0.2499
     32 O          63.0966   85.0805    7.6787 O.2     1  UNL1       -0.2699
     33 C          63.6500   83.6929   10.2803 C.3     1  UNL1        0.1110
     34 C          63.9267   82.9991   11.5811 C.3     1  UNL1        0.0939
     35 C          61.6850   86.8662    8.9314 C.ar    1  UNL1        0.0641
     36 C          62.1196   88.0842    9.6911 C.ar    1  UNL1        0.0054
     37 C          61.2755   89.3239    9.6671 C.ar    1  UNL1        0.0002
     38 C          59.9968   89.3455    8.8832 C.ar    1  UNL1        0.0009
     39 C          59.5622   88.1273    8.1234 C.ar    1  UNL1        0.0115
     40 C          60.4063   86.8876    8.1474 C.ar    1  UNL1        0.0620
     41 CL         59.9718   85.6696    7.3877 Cl      1  UNL1       -0.0821
@<TRIPOS>BOND
     1     6     7    2
     2     7    10    1
     3    10    11    1
     4    11    12   am
     5    12    13    2
     6    12    15    1
     7    15    16   ar
     8    16    17   ar
     9    17    18   ar
    10    18    19   ar
    11    19    21    1
    12    21    22    1
    13    21    23    1
    14    21    24    1
    15    19    20   ar
    16     7     8   am
    17     1     8    1
    18     1     2    1
    19     2     3    1
    20     3     4    1
    21     4    25    1
    22    25    26    1
    23    26    27    1
    24    27    28    1
    25    28    29    1
    26    29    30    1
    27    30    31   am
    28    31    32    2
    29    31    35    1
    30    35    36   ar
    31    36    37   ar
    32    37    38   ar
    33    38    39   ar
    34    39    40   ar
    35    40    41    1
    36    30    33    1
    37    33    34    1
    38     4     5    1
    39    20    15   ar
    40     5     1    1
    41    34    27    1
    42    40    35   ar
    43    11    14    1
    44     8     9    1
@<TRIPOS>MOLECULE
*****
 41 44 0 0 0
SMALL
GASTEIGER

@<TRIPOS>ATOM
      1 C          63.5374   85.6127   15.6669 C.3     1  UNL1        0.0889
      2 C          62.3534   84.8323   16.1561 C.3     1  UNL1        0.0383
      3 C          62.5180   83.4105   15.7076 C.3     1  UNL1        0.0739
      4 N          63.8037   83.3120   14.9412 N.3     1  UNL1       -0.2700
      5 C          64.4337   84.6730   14.9161 C.3     1  UNL1        0.0919
      6 O          61.5609   87.2439   17.2266 O.2     1  UNL1       -0.2733
      7 C          62.7939   87.8914   16.6693 C.2     1  UNL1        0.2425
      8 N          63.7821   87.0758   15.8895 N.am    1  UNL1       -0.3032
      9 H          64.5913   87.5007   15.5237 H       1  UNL1        0.1495
     10 C          63.0386   89.3544   16.8918 C.3     1  UNL1        0.1759
     11 N          64.0036   90.0954   16.0143 N.am    1  UNL1       -0.2931
     12 C          63.6665   90.3477   14.5747 C.2     1  UNL1        0.2462
     13 O          62.3646   89.8590   14.0124 O.2     1  UNL1       -0.2701
     14 H          64.8581   90.4162   16.3834 H       1  UNL1        0.1502
     15 C          64.6315   91.0887   13.6972 C.ar    1  UNL1        0.0533
     16 C          64.1911   91.5892   12.3535 C.ar    1  UNL1        0.0045
     17 C          65.1560   92.3301   11.4761 C.ar    1  UNL1        0.0001
     18 C          66.5613   92.5706   11.9424 C.ar    1  UNL1        0.0039
     19 C          67.0016   92.0701   13.2861 C.ar    1  UNL1        0.0716
     20 C          66.0367   91.3292   14.1635 C.ar    1  UNL1        0.0084
     21 C          68.4069   92.3106   13.7524 C.3     1  UNL1        0.4186
     22 F          69.8121   92.5511   14.2187 F       1  UNL1       -0.1659
     23 F          68.9126   91.3344   12.7319 F       1  UNL1       -0.1659
     24 F          67.9012   93.2869   14.7728 F       1  UNL1       -0.1659
     25 C          64.3614   82.0705   14.3107 C.3     1  UNL1        0.0897
     26 C          63.8510   81.6126   12.9765 C.3     1  UNL1        0.0897
     27 N          63.5599   82.6161   11.9003 N.3     1  UNL1       -0.2686
     28 C          62.7348   83.8299   12.2101 C.3     1  UNL1        0.0939
     29 C          62.4436   84.8335   11.1338 C.3     1  UNL1        0.1110
     30 N          62.9776   84.6231    9.7480 N.am    1  UNL1       -0.2732
     31 C          62.6864   85.6267    8.6717 C.2     1  UNL1        0.2499
     32 O          63.2204   85.4164    7.2858 O.2     1  UNL1       -0.2699
     33 C          63.8027   83.4093    9.4383 C.3     1  UNL1        0.1110
     34 C          64.0939   82.4059   10.5145 C.3     1  UNL1        0.0939
     35 C          61.8613   86.8405    8.9814 C.ar    1  UNL1        0.0641
     36 C          62.4242   87.9293    9.8459 C.ar    1  UNL1        0.0054
     37 C          61.5991   89.1431   10.1556 C.ar    1  UNL1        0.0002
     38 C          60.2111   89.2679    9.6008 C.ar    1  UNL1        0.0009
     39 C          59.6482   88.1790    8.7363 C.ar    1  UNL1        0.0115
     40 C          60.4733   86.9652    8.4266 C.ar    1  UNL1        0.0620
     41 CL         59.9104   85.8763    7.5621 Cl      1  UNL1       -0.0821
@<TRIPOS>BOND
     1     6     7    2
     2     7    10    1
     3    10    11    1
     4    11    12   am
     5    12    13    2
     6    12    15    1
     7    15    16   ar
     8    16    17   ar
     9    17    18   ar
    10    18    19   ar
    11    19    21    1
    12    21    22    1
    13    21    23    1
    14    21    24    1
    15    19    20   ar
    16     7     8   am
    17     1     8    1
    18     1     2    1
    19     2     3    1
    20     3     4    1
    21     4    25    1
    22    25    26    1
    23    26    27    1
    24    27    28    1
    25    28    29    1
    26    29    30    1
    27    30    31   am
    28    31    32    2
    29    31    35    1
    30    35    36   ar
    31    36    37   ar
    32    37    38   ar
    33    38    39   ar
    34    39    40   ar
    35    40    41    1
    36    30    33    1
    37    33    34    1
    38     4     5    1
    39    20    15   ar
    40     5     1    1
    41    34    27    1
    42    40    35   ar
    43    11    14    1
    44     8     9    1
@<TRIPOS>MOLECULE
*****
 41 44 0 0 0
SMALL
GASTEIGER

@<TRIPOS>ATOM
      1 C          59.0719   90.1046    5.7527 C.3     1  UNL1        0.0889
      2 C          58.0660   91.1378    5.3395 C.3     1  UNL1        0.0383
      3 C          58.7731   92.1668    4.5082 C.3     1  UNL1        0.0739
      4 N          60.2162   91.7696    4.4077 N.3     1  UNL1       -0.2700
      5 C          60.4007   90.4951    5.1768 C.3     1  UNL1        0.0919
      6 O          60.5635   89.6940    8.3230 O.2     1  UNL1       -0.2733
      7 C          59.5430   88.6883    7.8792 C.2     1  UNL1        0.2425
      8 N          58.7972   88.8935    6.5941 N.am    1  UNL1       -0.3032
      9 H          58.1274   88.2334    6.3028 H       1  UNL1        0.1495
     10 C          59.2683   87.4772    8.7205 C.3     1  UNL1        0.1759
     11 N          60.3480   86.4609    8.9474 N.am    1  UNL1       -0.2931
     12 C          61.0485   86.3939   10.2720 C.2     1  UNL1        0.2462
     13 O          60.6694   87.3431   11.3699 O.2     1  UNL1       -0.2701
     14 H          60.5969   85.8379    8.2269 H       1  UNL1        0.1502
     15 C          62.1283   85.3776   10.4989 C.ar    1  UNL1        0.0533
     16 C          62.9030   84.8340    9.3353 C.ar    1  UNL1        0.0045
     17 C          63.9827   83.8177    9.5622 C.ar    1  UNL1        0.0001
     18 C          64.2876   83.3451   10.9528 C.ar    1  UNL1        0.0039
     19 C          63.5128   83.8888   12.1164 C.ar    1  UNL1        0.0716
     20 C          62.4332   84.9050   11.8895 C.ar    1  UNL1        0.0084
     21 C          63.8177   83.4162   13.5070 C.3     1  UNL1        0.4186
     22 F          64.1226   82.9436   14.8976 F       1  UNL1       -0.1659
     23 F          62.5878   82.5579   13.4850 F       1  UNL1       -0.1659
     24 F          65.0477   84.2745   13.5290 F       1  UNL1       -0.1659
     25 C          61.2865   92.5159    3.6679 C.3     1  UNL1        0.0897
     26 C          61.5375   92.2259    2.2177 C.3     1  UNL1        0.0897
     27 N          60.6101   92.7712    1.1725 N.3     1  UNL1       -0.2686
     28 C          60.3597   91.9951   -0.0865 C.3     1  UNL1        0.0939
     29 C          59.4323   92.5404   -1.1319 C.3     1  UNL1        0.1110
     30 N          58.7553   93.8617   -0.9180 N.am    1  UNL1       -0.2732
     31 C          57.8278   94.4070   -1.9634 C.2     1  UNL1        0.2499
     32 O          57.1507   95.7283   -1.7497 O.2     1  UNL1       -0.2699
     33 C          59.0056   94.6378    0.3409 C.3     1  UNL1        0.1110
     34 C          59.9330   94.0925    1.3862 C.3     1  UNL1        0.0939
     35 C          57.5775   93.6309   -3.2224 C.ar    1  UNL1        0.0641
     36 C          58.3040   93.9931   -4.4836 C.ar    1  UNL1        0.0054
     37 C          58.0536   93.2170   -5.7426 C.ar    1  UNL1        0.0002
     38 C          57.0768   92.0787   -5.7402 C.ar    1  UNL1        0.0009
     39 C          56.3503   91.7165   -4.4789 C.ar    1  UNL1        0.0115
     40 C          56.6006   92.4926   -3.2199 C.ar    1  UNL1        0.0620
     41 CL         55.8742   92.1303   -1.9586 Cl      1  UNL1       -0.0821
@<TRIPOS>BOND
     1     6     7    2
     2     7    10    1
     3    10    11    1
     4    11    12   am
     5    12    13    2
     6    12    15    1
     7    15    16   ar
     8    16    17   ar
     9    17    18   ar
    10    18    19   ar
    11    19    21    1
    12    21    22    1
    13    21    23    1
    14    21    24    1
    15    19    20   ar
    16     7     8   am
    17     1     8    1
    18     1     2    1
    19     2     3    1
    20     3     4    1
    21     4    25    1
    22    25    26    1
    23    26    27    1
    24    27    28    1
    25    28    29    1
    26    29    30    1
    27    30    31   am
    28    31    32    2
    29    31    35    1
    30    35    36   ar
    31    36    37   ar
    32    37    38   ar
    33    38    39   ar
    34    39    40   ar
    35    40    41    1
    36    30    33    1
    37    33    34    1
    38     4     5    1
    39    20    15   ar
    40     5     1    1
    41    34    27    1
    42    40    35   ar
    43    11    14    1
    44     8     9    1
@<TRIPOS>MOLECULE
*****
 41 44 0 0 0
SMALL
GASTEIGER

@<TRIPOS>ATOM
      1 C          58.9498   90.0043    5.8857 C.3     1  UNL1        0.0889
      2 C          57.9160   91.0181    5.4938 C.3     1  UNL1        0.0383
      3 C          58.5649   92.0105    4.5751 C.3     1  UNL1        0.0739
      4 N          59.9998   91.6101    4.3991 N.3     1  UNL1       -0.2700
      5 C          60.2376   90.3702    5.2091 C.3     1  UNL1        0.0919
      6 O          60.5840   89.7222    8.3856 O.2     1  UNL1       -0.2733
      7 C          59.5508   88.6896    8.0445 C.2     1  UNL1        0.2425
      8 N          58.7337   88.8307    6.7945 N.am    1  UNL1       -0.3032
      9 H          58.0556   88.1530    6.5706 H       1  UNL1        0.1495
     10 C          59.3347   87.5160    8.9533 C.3     1  UNL1        0.1759
     11 N          60.4157   86.4901    9.1234 N.am    1  UNL1       -0.2931
     12 C          61.1216   86.3556   10.4400 C.2     1  UNL1        0.2462
     13 O          60.7466   87.2471   11.5866 O.2     1  UNL1       -0.2701
     14 H          60.6619   85.9050    8.3708 H       1  UNL1        0.1502
     15 C          62.2027   85.3297   10.6101 C.ar    1  UNL1        0.0533
     16 C          62.9229   84.7928    9.4088 C.ar    1  UNL1        0.0045
     17 C          64.0039   83.7669    9.5790 C.ar    1  UNL1        0.0001
     18 C          64.3646   83.2779   10.9503 C.ar    1  UNL1        0.0039
     19 C          63.6444   83.8147   12.1516 C.ar    1  UNL1        0.0716
     20 C          62.5634   84.8406   11.9815 C.ar    1  UNL1        0.0084
     21 C          64.0051   83.3256   13.5230 C.3     1  UNL1        0.4186
     22 F          64.3659   82.8366   14.8944 F       1  UNL1       -0.1659
     23 F          64.9009   84.5140   13.7111 F       1  UNL1       -0.1659
     24 F          63.1094   82.1373   13.3348 F       1  UNL1       -0.1659
     25 C          61.0179   92.3242    3.5605 C.3     1  UNL1        0.0897
     26 C          60.5758   93.3259    2.5353 C.3     1  UNL1        0.0897
     27 N          61.4853   93.6869    1.3984 N.3     1  UNL1       -0.2686
     28 C          61.1782   93.2071    0.0108 C.3     1  UNL1        0.0939
     29 C          62.0877   93.5681   -1.1261 C.3     1  UNL1        0.1110
     30 N          63.3044   94.4088   -0.8752 N.am    1  UNL1       -0.2732
     31 C          64.2140   94.7698   -2.0121 C.2     1  UNL1        0.2499
     32 O          65.4307   95.6105   -1.7614 O.2     1  UNL1       -0.2699
     33 C          63.6116   94.8886    0.5124 C.3     1  UNL1        0.1110
     34 C          62.7020   94.5276    1.6492 C.3     1  UNL1        0.0939
     35 C          63.9068   94.2901   -3.3998 C.ar    1  UNL1        0.0641
     36 C          64.3906   92.9444   -3.8523 C.ar    1  UNL1        0.0054
     37 C          64.0834   92.4646   -5.2399 C.ar    1  UNL1        0.0002
     38 C          63.2924   93.3307   -6.1750 C.ar    1  UNL1        0.0009
     39 C          62.8087   94.6765   -5.7224 C.ar    1  UNL1        0.0115
     40 C          63.1158   95.1562   -4.3348 C.ar    1  UNL1        0.0620
     41 CL         62.6320   96.5019   -3.8822 Cl      1  UNL1       -0.0821
@<TRIPOS>BOND
     1     6     7    2
     2     7    10    1
     3    10    11    1
     4    11    12   am
     5    12    13    2
     6    12    15    1
     7    15    16   ar
     8    16    17   ar
     9    17    18   ar
    10    18    19   ar
    11    19    21    1
    12    21    22    1
    13    21    23    1
    14    21    24    1
    15    19    20   ar
    16     7     8   am
    17     1     8    1
    18     1     2    1
    19     2     3    1
    20     3     4    1
    21     4    25    1
    22    25    26    1
    23    26    27    1
    24    27    28    1
    25    28    29    1
    26    29    30    1
    27    30    31   am
    28    31    32    2
    29    31    35    1
    30    35    36   ar
    31    36    37   ar
    32    37    38   ar
    33    38    39   ar
    34    39    40   ar
    35    40    41    1
    36    30    33    1
    37    33    34    1
    38     4     5    1
    39    20    15   ar
    40     5     1    1
    41    34    27    1
    42    40    35   ar
    43    11    14    1
    44     8     9    1
@<TRIPOS>MOLECULE
*****
 41 44 0 0 0
SMALL
GASTEIGER

@<TRIPOS>ATOM
      1 C          59.4051   91.7442    4.3996 C.3     1  UNL1        0.0889
      2 C          57.9846   91.6154    4.8639 C.3     1  UNL1        0.0383
      3 C          57.9400   90.5652    5.9339 C.3     1  UNL1        0.0739
      4 N          59.3330   90.0448    6.1310 N.3     1  UNL1       -0.2700
      5 C          60.2385   90.7734    5.1828 C.3     1  UNL1        0.0919
      6 O          62.2759   91.6362    3.5354 O.2     1  UNL1       -0.2733
      7 C          61.3400   92.6254    2.9065 C.2     1  UNL1        0.2425
      8 N          59.9047   92.6794    3.3386 N.am    1  UNL1       -0.3032
      9 H          59.2904   93.3287    2.9258 H       1  UNL1        0.1495
     10 C          61.8395   93.5607    1.8454 C.3     1  UNL1        0.1759
     11 N          61.3712   93.4064    0.4287 N.am    1  UNL1       -0.2931
     12 C          60.0133   93.9030    0.0294 C.2     1  UNL1        0.2462
     13 O          59.1236   94.5537    1.0467 O.2     1  UNL1       -0.2701
     14 H          61.9552   92.9793   -0.2390 H       1  UNL1        0.1502
     15 C          59.5451   93.7487   -1.3874 C.ar    1  UNL1        0.0533
     16 C          60.2146   94.5190   -2.4866 C.ar    1  UNL1        0.0045
     17 C          59.7463   94.3647   -3.9032 C.ar    1  UNL1        0.0001
     18 C          58.6085   93.4402   -4.2206 C.ar    1  UNL1        0.0039
     19 C          57.9390   92.6699   -3.1214 C.ar    1  UNL1        0.0716
     20 C          58.4073   92.8242   -1.7047 C.ar    1  UNL1        0.0084
     21 C          56.8013   91.7454   -3.4387 C.3     1  UNL1        0.4186
     22 F          55.6635   90.8209   -3.7561 F       1  UNL1       -0.1659
     23 F          56.0559   92.2508   -2.2391 F       1  UNL1       -0.1659
     24 F          57.5466   91.2399   -4.6383 F       1  UNL1       -0.1659
     25 C          59.7477   88.9823    7.1052 C.3     1  UNL1        0.0897
     26 C          59.8362   89.2998    8.5685 C.3     1  UNL1        0.0897
     27 N          60.6327   88.4151    9.4811 N.3     1  UNL1       -0.2686
     28 C          60.6653   86.9335    9.2490 C.3     1  UNL1        0.0939
     29 C          61.4619   86.0487   10.1615 C.3     1  UNL1        0.1110
     30 N          62.2257   86.6456   11.3062 N.am    1  UNL1       -0.2732
     31 C          63.0223   85.7608   12.2188 C.2     1  UNL1        0.2499
     32 O          63.7862   86.3576   13.3634 O.2     1  UNL1       -0.2699
     33 C          62.1932   88.1272   11.5383 C.3     1  UNL1        0.1110
     34 C          61.3966   89.0119   10.6257 C.3     1  UNL1        0.0939
     35 C          63.0549   84.2792   11.9866 C.ar    1  UNL1        0.0641
     36 C          63.5761   83.7345   10.6899 C.ar    1  UNL1        0.0054
     37 C          63.6087   82.2530   10.4578 C.ar    1  UNL1        0.0002
     38 C          63.1200   81.3161   11.5225 C.ar    1  UNL1        0.0009
     39 C          62.5988   81.8608   12.8193 C.ar    1  UNL1        0.0115
     40 C          62.5662   83.3424   13.0514 C.ar    1  UNL1        0.0620
     41 CL         62.0450   83.8871   14.3481 Cl      1  UNL1       -0.0821
@<TRIPOS>BOND
     1     6     7    2
     2     7    10    1
     3    10    11    1
     4    11    12   am
     5    12    13    2
     6    12    15    1
     7    15    16   ar
     8    16    17   ar
     9    17    18   ar
    10    18    19   ar
    11    19    21    1
    12    21    22    1
    13    21    23    1
    14    21    24    1
    15    19    20   ar
    16     7     8   am
    17     1     8    1
    18     1     2    1
    19     2     3    1
    20     3     4    1
    21     4    25    1
    22    25    26    1
    23    26    27    1
    24    27    28    1
    25    28    29    1
    26    29    30    1
    27    30    31   am
    28    31    32    2
    29    31    35    1
    30    35    36   ar
    31    36    37   ar
    32    37    38   ar
    33    38    39   ar
    34    39    40   ar
    35    40    41    1
    36    30    33    1
    37    33    34    1
    38     4     5    1
    39    20    15   ar
    40     5     1    1
    41    34    27    1
    42    40    35   ar
    43    11    14    1
    44     8     9    1
@<TRIPOS>MOLECULE
*****
 41 44 0 0 0
SMALL
GASTEIGER

@<TRIPOS>ATOM
      1 C          60.3885   87.9714    8.8596 C.3     1  UNL1        0.0889
      2 C          59.1895   87.4579    8.1187 C.3     1  UNL1        0.0383
      3 C          59.5686   86.1623    7.4648 C.3     1  UNL1        0.0739
      4 N          61.0018   85.8749    7.8015 N.3     1  UNL1       -0.2700
      5 C          61.5085   86.9930    8.6635 C.3     1  UNL1        0.0919
      6 O          61.3553   87.9102   11.6988 O.2     1  UNL1       -0.2733
      7 C          60.9391   89.2098   11.0762 C.2     1  UNL1        0.2425
      8 N          60.4556   89.2404    9.6566 N.am    1  UNL1       -0.3032
      9 H          60.1824   90.0934    9.2479 H       1  UNL1        0.1495
     10 C          61.0062   90.4787   11.8731 C.3     1  UNL1        0.1759
     11 N          62.2992   91.2322   11.9762 N.am    1  UNL1       -0.2931
     12 C          63.3587   90.7760   12.9350 C.2     1  UNL1        0.2462
     13 O          63.1252   89.5664   13.7908 O.2     1  UNL1       -0.2701
     14 H          62.4525   92.0260   11.4145 H       1  UNL1        0.1502
     15 C          64.6517   91.5294   13.0381 C.ar    1  UNL1        0.0533
     16 C          65.1538   92.3212   11.8672 C.ar    1  UNL1        0.0045
     17 C          66.4467   93.0745   11.9703 C.ar    1  UNL1        0.0001
     18 C          67.2376   93.0361   13.2443 C.ar    1  UNL1        0.0039
     19 C          66.7355   92.2444   14.4152 C.ar    1  UNL1        0.0716
     20 C          65.4425   91.4910   14.3121 C.ar    1  UNL1        0.0084
     21 C          67.5263   92.2060   15.6892 C.3     1  UNL1        0.4186
     22 F          68.3172   92.1676   16.9632 F       1  UNL1       -0.1659
     23 F          68.7792   91.9539   14.9039 F       1  UNL1       -0.1659
     24 F          66.2735   92.4582   16.4745 F       1  UNL1       -0.1659
     25 C          61.7899   84.6794    7.3547 C.3     1  UNL1        0.0897
     26 C          63.1399   84.4063    7.9488 C.3     1  UNL1        0.0897
     27 N          63.2643   84.0708    9.4054 N.3     1  UNL1       -0.2686
     28 C          63.0229   85.1279   10.4418 C.3     1  UNL1        0.0939
     29 C          63.1473   84.7924   11.8986 C.3     1  UNL1        0.1110
     30 N          63.5131   83.3997   12.3188 N.am    1  UNL1       -0.2732
     31 C          63.6375   83.0641   13.7755 C.2     1  UNL1        0.2499
     32 O          64.0033   81.6714   14.1958 O.2     1  UNL1       -0.2699
     33 C          63.7545   82.3425   11.2823 C.3     1  UNL1        0.1110
     34 C          63.6301   82.6781    9.8257 C.3     1  UNL1        0.0939
     35 C          63.3962   84.1213   14.8119 C.ar    1  UNL1        0.0641
     36 C          62.0752   84.1905   15.5191 C.ar    1  UNL1        0.0054
     37 C          61.8338   85.2477   16.5555 C.ar    1  UNL1        0.0002
     38 C          62.9135   86.2356   16.8847 C.ar    1  UNL1        0.0009
     39 C          64.2345   86.1663   16.1775 C.ar    1  UNL1        0.0115
     40 C          64.4759   85.1091   15.1411 C.ar    1  UNL1        0.0620
     41 CL         65.7969   85.0399   14.4339 Cl      1  UNL1       -0.0821
@<TRIPOS>BOND
     1     6     7    2
     2     7    10    1
     3    10    11    1
     4    11    12   am
     5    12    13    2
     6    12    15    1
     7    15    16   ar
     8    16    17   ar
     9    17    18   ar
    10    18    19   ar
    11    19    21    1
    12    21    22    1
    13    21    23    1
    14    21    24    1
    15    19    20   ar
    16     7     8   am
    17     1     8    1
    18     1     2    1
    19     2     3    1
    20     3     4    1
    21     4    25    1
    22    25    26    1
    23    26    27    1
    24    27    28    1
    25    28    29    1
    26    29    30    1
    27    30    31   am
    28    31    32    2
    29    31    35    1
    30    35    36   ar
    31    36    37   ar
    32    37    38   ar
    33    38    39   ar
    34    39    40   ar
    35    40    41    1
    36    30    33    1
    37    33    34    1
    38     4     5    1
    39    20    15   ar
    40     5     1    1
    41    34    27    1
    42    40    35   ar
    43    11    14    1
    44     8     9    1
@<TRIPOS>MOLECULE
*****
 41 44 0 0 0
SMALL
GASTEIGER

@<TRIPOS>ATOM
      1 C          60.1863   88.1663    8.8466 C.3     1  UNL1        0.0889
      2 C          58.9303   87.7388    8.1469 C.3     1  UNL1        0.0383
      3 C          59.2278   86.4789    7.3892 C.3     1  UNL1        0.0739
      4 N          60.6677   86.1277    7.6206 N.3     1  UNL1       -0.2700
      5 C          61.2600   87.1706    8.5214 C.3     1  UNL1        0.0919
      6 O          60.8705   87.8462   11.7500 O.2     1  UNL1       -0.2733
      7 C          60.6835   89.2170   11.1702 C.2     1  UNL1        0.2425
      8 N          60.3414   89.3770    9.7186 N.am    1  UNL1       -0.3032
      9 H          60.2186   90.2767    9.3381 H       1  UNL1        0.1495
     10 C          60.8385   90.4276   12.0421 C.3     1  UNL1        0.1759
     11 N          62.1786   91.0881   12.1770 N.am    1  UNL1       -0.2931
     12 C          63.2101   90.5100   13.0998 C.2     1  UNL1        0.2462
     13 O          62.9017   89.2715   13.8878 O.2     1  UNL1       -0.2701
     14 H          62.3810   91.9010   11.6599 H       1  UNL1        0.1502
     15 C          64.5502   91.1705   13.2348 C.ar    1  UNL1        0.0533
     16 C          65.4201   90.8670   14.4184 C.ar    1  UNL1        0.0045
     17 C          66.7601   91.5275   14.5532 C.ar    1  UNL1        0.0001
     18 C          67.2301   92.4915   13.5045 C.ar    1  UNL1        0.0039
     19 C          66.3601   92.7950   12.3209 C.ar    1  UNL1        0.0716
     20 C          65.0202   92.1345   12.1860 C.ar    1  UNL1        0.0084
     21 C          66.8301   93.7589   11.2721 C.3     1  UNL1        0.4186
     22 F          67.3001   94.7229   10.2233 F       1  UNL1       -0.1659
     23 F          67.3385   92.6138   10.4474 F       1  UNL1       -0.1659
     24 F          66.3217   94.9041   12.0968 F       1  UNL1       -0.1659
     25 C          61.3886   84.9419    7.0513 C.3     1  UNL1        0.0897
     26 C          62.8163   84.6797    7.4292 C.3     1  UNL1        0.0897
     27 N          63.1599   84.2874    8.8356 N.3     1  UNL1       -0.2686
     28 C          62.8319   85.2090    9.9727 C.3     1  UNL1        0.0939
     29 C          63.1755   84.8166   11.3792 C.3     1  UNL1        0.1110
     30 N          63.8472   83.5027   11.6484 N.am    1  UNL1       -0.2732
     31 C          64.1908   83.1103   13.0549 C.2     1  UNL1        0.2499
     32 O          64.8624   81.7964   13.3241 O.2     1  UNL1       -0.2699
     33 C          64.1752   82.5811   10.5113 C.3     1  UNL1        0.1110
     34 C          63.8316   82.9735    9.1049 C.3     1  UNL1        0.0939
     35 C          63.8627   84.0319   14.1920 C.ar    1  UNL1        0.0641
     36 C          64.7466   85.2082   14.4829 C.ar    1  UNL1        0.0054
     37 C          64.4185   86.1298   15.6201 C.ar    1  UNL1        0.0002
     38 C          63.2065   85.8749   16.4662 C.ar    1  UNL1        0.0009
     39 C          62.3226   84.6985   16.1753 C.ar    1  UNL1        0.0115
     40 C          62.6507   83.7769   15.0382 C.ar    1  UNL1        0.0620
     41 CL         61.7668   82.6005   14.7472 Cl      1  UNL1       -0.0821
@<TRIPOS>BOND
     1     6     7    2
     2     7    10    1
     3    10    11    1
     4    11    12   am
     5    12    13    2
     6    12    15    1
     7    15    16   ar
     8    16    17   ar
     9    17    18   ar
    10    18    19   ar
    11    19    21    1
    12    21    22    1
    13    21    23    1
    14    21    24    1
    15    19    20   ar
    16     7     8   am
    17     1     8    1
    18     1     2    1
    19     2     3    1
    20     3     4    1
    21     4    25    1
    22    25    26    1
    23    26    27    1
    24    27    28    1
    25    28    29    1
    26    29    30    1
    27    30    31   am
    28    31    32    2
    29    31    35    1
    30    35    36   ar
    31    36    37   ar
    32    37    38   ar
    33    38    39   ar
    34    39    40   ar
    35    40    41    1
    36    30    33    1
    37    33    34    1
    38     4     5    1
    39    20    15   ar
    40     5     1    1
    41    34    27    1
    42    40    35   ar
    43    11    14    1
    44     8     9    1
@<TRIPOS>MOLECULE
*****
 41 44 0 0 0
SMALL
GASTEIGER

@<TRIPOS>ATOM
      1 C          61.7028   85.7858   11.1483 C.3     1  UNL1        0.0889
      2 C          62.6399   84.9131   10.3672 C.3     1  UNL1        0.0383
      3 C          63.5656   84.2417   11.3378 C.3     1  UNL1        0.0739
      4 N          63.2007   84.6994   12.7189 N.3     1  UNL1       -0.2700
      5 C          62.0494   85.6537   12.6017 C.3     1  UNL1        0.0919
      6 O          62.3844   88.3395    9.7290 O.2     1  UNL1       -0.2733
      7 C          60.9516   87.9174    9.8668 C.2     1  UNL1        0.2425
      8 N          60.6108   86.6406   10.5764 N.am    1  UNL1       -0.3032
      9 H          59.6704   86.3636   10.6668 H       1  UNL1        0.1495
     10 C          59.8596   88.7721    9.2949 C.3     1  UNL1        0.1759
     11 N          60.1559   89.7081    8.1609 N.am    1  UNL1       -0.2931
     12 C          59.3850   89.6006    6.8787 C.2     1  UNL1        0.2462
     13 O          58.3178   88.5570    6.7304 O.2     1  UNL1       -0.2701
     14 H          60.8563   90.3931    8.2581 H       1  UNL1        0.1502
     15 C          59.6813   90.5367    5.7446 C.ar    1  UNL1        0.0533
     16 C          58.6250   91.4845    5.2590 C.ar    1  UNL1        0.0045
     17 C          58.9213   92.4205    4.1249 C.ar    1  UNL1        0.0001
     18 C          60.2739   92.4087    3.4766 C.ar    1  UNL1        0.0039
     19 C          61.3301   91.4609    3.9622 C.ar    1  UNL1        0.0716
     20 C          61.0338   90.5249    5.0962 C.ar    1  UNL1        0.0084
     21 C          62.6827   91.4491    3.3138 C.3     1  UNL1        0.4186
     22 F          64.0353   91.4373    2.6654 F       1  UNL1       -0.1659
     23 F          62.5300   92.9009    2.9688 F       1  UNL1       -0.1659
     24 F          62.8354   89.9973    3.6588 F       1  UNL1       -0.1659
     25 C          63.8696   84.2770   13.9933 C.3     1  UNL1        0.0897
     26 C          63.5560   84.9880   15.2763 C.3     1  UNL1        0.0897
     27 N          63.6874   86.4800   15.3584 N.3     1  UNL1       -0.2686
     28 C          64.4516   87.2247   14.3041 C.3     1  UNL1        0.0939
     29 C          64.5830   88.7167   14.3862 C.3     1  UNL1        0.1110
     30 N          63.9502   89.4639   15.5226 N.am    1  UNL1       -0.2732
     31 C          64.0817   90.9559   15.6046 C.2     1  UNL1        0.2499
     32 O          63.4489   91.7032   16.7410 O.2     1  UNL1       -0.2699
     33 C          63.1861   88.7192   16.5768 C.3     1  UNL1        0.1110
     34 C          63.0546   87.2272   16.4947 C.3     1  UNL1        0.0939
     35 C          64.8459   91.7006   14.5504 C.ar    1  UNL1        0.0641
     36 C          64.4111   91.6277   13.1167 C.ar    1  UNL1        0.0054
     37 C          65.1753   92.3724   12.0625 C.ar    1  UNL1        0.0002
     38 C          66.3743   93.1900   12.4420 C.ar    1  UNL1        0.0009
     39 C          66.8090   93.2629   13.8758 C.ar    1  UNL1        0.0115
     40 C          66.0448   92.5182   14.9300 C.ar    1  UNL1        0.0620
     41 CL         66.4796   92.5911   16.3637 Cl      1  UNL1       -0.0821
@<TRIPOS>BOND
     1     6     7    2
     2     7    10    1
     3    10    11    1
     4    11    12   am
     5    12    13    2
     6    12    15    1
     7    15    16   ar
     8    16    17   ar
     9    17    18   ar
    10    18    19   ar
    11    19    21    1
    12    21    22    1
    13    21    23    1
    14    21    24    1
    15    19    20   ar
    16     7     8   am
    17     1     8    1
    18     1     2    1
    19     2     3    1
    20     3     4    1
    21     4    25    1
    22    25    26    1
    23    26    27    1
    24    27    28    1
    25    28    29    1
    26    29    30    1
    27    30    31   am
    28    31    32    2
    29    31    35    1
    30    35    36   ar
    31    36    37   ar
    32    37    38   ar
    33    38    39   ar
    34    39    40   ar
    35    40    41    1
    36    30    33    1
    37    33    34    1
    38     4     5    1
    39    20    15   ar
    40     5     1    1
    41    34    27    1
    42    40    35   ar
    43    11    14    1
    44     8     9    1
