@<TRIPOS>MOLECULE
*****
 33 37 0 0 0
SMALL
GASTEIGER

@<TRIPOS>ATOM
      1 C          62.8433   83.4201   12.2731 C.ar    1  UNL1        0.0436
      2 C          62.1744   82.0783   12.3197 C.ar    1  UNL1        0.0142
      3 C          61.7403   81.5020   13.6347 C.ar    1  UNL1        0.0010
      4 C          61.9751   82.2674   14.9032 C.ar    1  UNL1       -0.0032
      5 C          62.6441   83.6091   14.8566 C.ar    1  UNL1       -0.0091
      6 C          63.0782   84.1855   13.5416 C.ar    1  UNL1       -0.0101
      7 C          63.7472   85.5273   13.4950 C.3     1  UNL1        0.0444
      8 C          63.9820   86.2927   14.7635 C.3     1  UNL1        0.0749
      9 N          63.5479   85.7162   16.0786 N.3     1  UNL1       -0.2934
     10 C          62.8789   84.3745   16.1251 C.3     1  UNL1        0.0954
     11 H          62.8974   86.3841   16.4924 H       1  UNL1        0.1236
     12 N          63.2775   83.9965   10.9581 N.pl3   1  UNL1       -0.3076
     13 C          64.5363   83.5087   10.3043 C.3     1  UNL1        0.1121
     14 C          59.9787   88.2534    8.3130 C.3     1  UNL1        0.0896
     15 N          60.8034   87.1892    8.9743 N.3     1  UNL1       -0.2714
     16 C          61.7624   86.3706    8.1619 C.3     1  UNL1        0.0738
     17 C          62.5872   85.3063    8.8231 C.3     1  UNL1        0.0371
     18 C          62.4528   85.0607   10.2968 C.3     1  UNL1        0.0756
     19 C          61.4937   85.8794   11.1092 C.3     1  UNL1        0.0371
     20 C          60.6690   86.9436   10.4479 C.3     1  UNL1        0.0738
     21 C          64.6509   87.6344   14.7170 C.3     1  UNL1        0.0886
     22 N          63.8230   88.8832   14.6466 N.3     1  UNL1       -0.2667
     23 C          63.0605   89.3466   15.8524 C.3     1  UNL1        0.0899
     24 C          63.7574   89.6687   13.3704 C.3     1  UNL1        0.0978
     25 C          62.8643   89.2134   12.2545 C.3     1  UNL1        0.0224
     26 C          62.7987   89.9989   10.9783 C.3     1  UNL1        0.0065
     27 C          63.6263   91.2396   10.8179 C.3     1  UNL1        0.0277
     28 C          64.5194   91.6948   11.9336 C.ar    1  UNL1       -0.0073
     29 C          65.3470   92.9356   11.7732 C.ar    1  UNL1       -0.0015
     30 C          66.2401   93.3908   12.8891 C.ar    1  UNL1        0.0203
     31 C          66.3057   92.6054   14.1653 C.ar    1  UNL1        0.0985
     32 N          65.4781   91.3647   14.3257 N.ar    1  UNL1       -0.2471
     33 C          64.5850   90.9094   13.2099 C.ar    1  UNL1        0.0695
@<TRIPOS>BOND
     1    14    15    1
     2    15    16    1
     3    16    17    1
     4    17    18    1
     5    18    12    1
     6    12    13    1
     7    12     1    1
     8     1     2   ar
     9     2     3   ar
    10     3     4   ar
    11     4     5   ar
    12     5     6   ar
    13     6     7    1
    14     7     8    1
    15     8    21    1
    16    21    22    1
    17    22    23    1
    18    24    22    1
    19    24    25    1
    20    25    26    1
    21    26    27    1
    22    27    28    1
    23    28    29   ar
    24    29    30   ar
    25    30    31   ar
    26    31    32   ar
    27    32    33   ar
    28     8     9    1
    29     9    10    1
    30    18    19    1
    31    19    20    1
    32    20    15    1
    33     6     1   ar
    34    33    24    1
    35    10     5    1
    36    33    28   ar
    37     9    11    1
@<TRIPOS>MOLECULE
*****
 33 37 0 0 0
SMALL
GASTEIGER

@<TRIPOS>ATOM
      1 C          65.0980   91.1256   14.5829 C.ar    1  UNL1        0.0436
      2 C          66.4822   91.4924   15.0297 C.ar    1  UNL1        0.0142
      3 C          67.4500   92.0946   14.0548 C.ar    1  UNL1        0.0010
      4 C          67.0338   92.3300   12.6331 C.ar    1  UNL1       -0.0032
      5 C          65.6497   91.9633   12.1863 C.ar    1  UNL1       -0.0091
      6 C          64.6818   91.3610   13.1612 C.ar    1  UNL1       -0.0101
      7 C          63.2976   90.9942   12.7144 C.3     1  UNL1        0.0444
      8 C          62.8814   91.2297   11.2927 C.3     1  UNL1        0.0749
      9 N          63.8493   91.8319   10.3178 N.3     1  UNL1       -0.2934
     10 C          65.2334   92.1987   10.7646 C.3     1  UNL1        0.0954
     11 H          63.4181   92.6860    9.9641 H       1  UNL1        0.1236
     12 N          64.1301   90.5233   15.5579 N.pl3   1  UNL1       -0.3076
     13 C          63.3474   91.4088   16.4817 C.3     1  UNL1        0.1121
     14 C          63.3892   84.5728   15.7623 C.3     1  UNL1        0.0896
     15 N          63.5744   86.0604   15.7112 N.3     1  UNL1       -0.2714
     16 C          64.3359   86.6829   14.5787 C.3     1  UNL1        0.0738
     17 C          64.5211   88.1706   14.5276 C.3     1  UNL1        0.0371
     18 C          63.9449   89.0357   15.6090 C.3     1  UNL1        0.0756
     19 C          63.1834   88.4132   16.7415 C.3     1  UNL1        0.0371
     20 C          62.9981   86.9256   16.7926 C.3     1  UNL1        0.0738
     21 C          61.4973   90.8629   10.8459 C.3     1  UNL1        0.0886
     22 N          60.8344   89.6327   11.3911 N.3     1  UNL1       -0.2667
     23 C          59.7591   89.7579   12.4295 C.3     1  UNL1        0.0899
     24 C          61.2468   88.2775   10.8981 C.3     1  UNL1        0.0978
     25 C          62.2345   87.4634   11.6803 C.3     1  UNL1        0.0224
     26 C          62.6469   86.1081   11.1872 C.3     1  UNL1        0.0065
     27 C          62.0717   85.5669    9.9120 C.3     1  UNL1        0.0277
     28 C          61.0841   86.3809    9.1298 C.ar    1  UNL1       -0.0073
     29 C          60.5088   85.8397    7.8546 C.ar    1  UNL1       -0.0015
     30 C          59.5211   86.6539    7.0724 C.ar    1  UNL1        0.0203
     31 C          59.1087   88.0091    7.5655 C.ar    1  UNL1        0.0985
     32 N          59.6840   88.5503    8.8407 N.ar    1  UNL1       -0.2471
     33 C          60.6716   87.7363    9.6229 C.ar    1  UNL1        0.0695
@<TRIPOS>BOND
     1    14    15    1
     2    15    16    1
     3    16    17    1
     4    17    18    1
     5    18    12    1
     6    12    13    1
     7    12     1    1
     8     1     2   ar
     9     2     3   ar
    10     3     4   ar
    11     4     5   ar
    12     5     6   ar
    13     6     7    1
    14     7     8    1
    15     8    21    1
    16    21    22    1
    17    22    23    1
    18    24    22    1
    19    24    25    1
    20    25    26    1
    21    26    27    1
    22    27    28    1
    23    28    29   ar
    24    29    30   ar
    25    30    31   ar
    26    31    32   ar
    27    32    33   ar
    28     8     9    1
    29     9    10    1
    30    18    19    1
    31    19    20    1
    32    20    15    1
    33     6     1   ar
    34    33    24    1
    35    10     5    1
    36    33    28   ar
    37     9    11    1
@<TRIPOS>MOLECULE
*****
 33 37 0 0 0
SMALL
GASTEIGER

@<TRIPOS>ATOM
      1 C          62.8779   83.2634   12.2953 C.ar    1  UNL1        0.0436
      2 C          62.1447   81.9549   12.3020 C.ar    1  UNL1        0.0142
      3 C          61.6463   81.3811   13.5952 C.ar    1  UNL1        0.0010
      4 C          61.8811   82.1159   14.8816 C.ar    1  UNL1       -0.0032
      5 C          62.6143   83.4244   14.8749 C.ar    1  UNL1       -0.0091
      6 C          63.1127   83.9982   13.5817 C.ar    1  UNL1       -0.0101
      7 C          63.8460   85.3068   13.5750 C.3     1  UNL1        0.0444
      8 C          64.0808   86.0416   14.8614 C.3     1  UNL1        0.0749
      9 N          63.5823   85.4677   16.1547 N.3     1  UNL1       -0.2934
     10 C          62.8491   84.1592   16.1614 C.3     1  UNL1        0.0954
     11 H          62.9529   86.1600   16.5608 H       1  UNL1        0.1236
     12 N          63.3763   83.8373   11.0021 N.pl3   1  UNL1       -0.3076
     13 C          64.7156   83.4263   10.4660 C.3     1  UNL1        0.1121
     14 C          60.0129   87.7763    7.9737 C.3     1  UNL1        0.0896
     15 N          60.8537   86.7915    8.7308 N.3     1  UNL1       -0.2714
     16 C          61.8954   85.9862    8.0123 C.3     1  UNL1        0.0738
     17 C          62.7363   85.0014    8.7693 C.3     1  UNL1        0.0371
     18 C          62.5355   84.8220   10.2450 C.3     1  UNL1        0.0756
     19 C          61.4938   85.6274   10.9635 C.3     1  UNL1        0.0371
     20 C          60.6529   86.6121   10.2064 C.3     1  UNL1        0.0738
     21 C          64.8140   87.3501   14.8547 C.3     1  UNL1        0.0886
     22 N          64.0630   88.6317   15.0633 N.3     1  UNL1       -0.2667
     23 C          62.9552   88.6961   16.0726 C.3     1  UNL1        0.0899
     24 C          64.4198   89.8489   14.2626 C.3     1  UNL1        0.0978
     25 C          65.3912   90.8506   14.8132 C.3     1  UNL1        0.0224
     26 C          65.7480   92.0678   14.0125 C.3     1  UNL1        0.0065
     27 C          65.1335   92.2833   12.6613 C.3     1  UNL1        0.0277
     28 C          64.1621   91.2817   12.1107 C.ar    1  UNL1       -0.0073
     29 C          63.5476   91.4972   10.7594 C.ar    1  UNL1       -0.0015
     30 C          62.5762   90.4955   10.2088 C.ar    1  UNL1        0.0203
     31 C          62.2194   89.2783   11.0095 C.ar    1  UNL1        0.0985
     32 N          62.8340   89.0628   12.3608 N.ar    1  UNL1       -0.2471
     33 C          63.8053   90.0644   12.9114 C.ar    1  UNL1        0.0695
@<TRIPOS>BOND
     1    14    15    1
     2    15    16    1
     3    16    17    1
     4    17    18    1
     5    18    12    1
     6    12    13    1
     7    12     1    1
     8     1     2   ar
     9     2     3   ar
    10     3     4   ar
    11     4     5   ar
    12     5     6   ar
    13     6     7    1
    14     7     8    1
    15     8    21    1
    16    21    22    1
    17    22    23    1
    18    24    22    1
    19    24    25    1
    20    25    26    1
    21    26    27    1
    22    27    28    1
    23    28    29   ar
    24    29    30   ar
    25    30    31   ar
    26    31    32   ar
    27    32    33   ar
    28     8     9    1
    29     9    10    1
    30    18    19    1
    31    19    20    1
    32    20    15    1
    33     6     1   ar
    34    33    24    1
    35    10     5    1
    36    33    28   ar
    37     9    11    1
@<TRIPOS>MOLECULE
*****
 33 37 0 0 0
SMALL
GASTEIGER

@<TRIPOS>ATOM
      1 C          65.0594   91.1307   14.4002 C.ar    1  UNL1        0.0436
      2 C          66.4821   91.4516   14.7509 C.ar    1  UNL1        0.0142
      3 C          67.4087   91.9939   13.7034 C.ar    1  UNL1        0.0010
      4 C          66.9127   92.2152   12.3052 C.ar    1  UNL1       -0.0032
      5 C          65.4900   91.8942   11.9545 C.ar    1  UNL1       -0.0091
      6 C          64.5634   91.3520   13.0020 C.ar    1  UNL1       -0.0101
      7 C          63.1407   91.0310   12.6513 C.3     1  UNL1        0.0444
      8 C          62.6447   91.2523   11.2531 C.3     1  UNL1        0.0749
      9 N          63.5714   91.7946   10.2056 N.3     1  UNL1       -0.2934
     10 C          64.9940   92.1155   10.5563 C.3     1  UNL1        0.0954
     11 H          63.1517   92.6573    9.8592 H       1  UNL1        0.1236
     12 N          64.1327   90.5884   15.4477 N.pl3   1  UNL1       -0.3076
     13 C          63.4036   91.5271   16.3627 C.3     1  UNL1        0.1121
     14 C          63.3423   84.6644   15.9777 C.3     1  UNL1        0.0896
     15 N          63.5399   86.1453   15.8452 N.3     1  UNL1       -0.2714
     16 C          64.3351   86.6963   14.6989 C.3     1  UNL1        0.0738
     17 C          64.5327   88.1773   14.5663 C.3     1  UNL1        0.0371
     18 C          63.9351   89.1074   15.5802 C.3     1  UNL1        0.0756
     19 C          63.1399   88.5564   16.7266 C.3     1  UNL1        0.0371
     20 C          62.9423   87.0754   16.8591 C.3     1  UNL1        0.0738
     21 C          61.2220   90.9313   10.9024 C.3     1  UNL1        0.0886
     22 N          60.6522   89.5850   11.2382 N.3     1  UNL1       -0.2667
     23 C          60.0802   89.3317   12.6016 C.3     1  UNL1        0.0899
     24 C          60.6543   88.4922   10.2109 C.3     1  UNL1        0.0978
     25 C          59.9308   88.6835    8.9108 C.3     1  UNL1        0.0224
     26 C          59.9329   87.5906    7.8834 C.3     1  UNL1        0.0065
     27 C          60.6585   86.3064    8.1560 C.3     1  UNL1        0.0277
     28 C          61.3820   86.1150    9.4559 C.ar    1  UNL1       -0.0073
     29 C          62.1075   84.8308    9.7285 C.ar    1  UNL1       -0.0015
     30 C          62.8310   84.6395   11.0286 C.ar    1  UNL1        0.0203
     31 C          62.8289   85.7324   12.0560 C.ar    1  UNL1        0.0985
     32 N          62.1033   87.0166   11.7834 N.ar    1  UNL1       -0.2471
     33 C          61.3799   87.2079   10.4834 C.ar    1  UNL1        0.0695
@<TRIPOS>BOND
     1    14    15    1
     2    15    16    1
     3    16    17    1
     4    17    18    1
     5    18    12    1
     6    12    13    1
     7    12     1    1
     8     1     2   ar
     9     2     3   ar
    10     3     4   ar
    11     4     5   ar
    12     5     6   ar
    13     6     7    1
    14     7     8    1
    15     8    21    1
    16    21    22    1
    17    22    23    1
    18    24    22    1
    19    24    25    1
    20    25    26    1
    21    26    27    1
    22    27    28    1
    23    28    29   ar
    24    29    30   ar
    25    30    31   ar
    26    31    32   ar
    27    32    33   ar
    28     8     9    1
    29     9    10    1
    30    18    19    1
    31    19    20    1
    32    20    15    1
    33     6     1   ar
    34    33    24    1
    35    10     5    1
    36    33    28   ar
    37     9    11    1
@<TRIPOS>MOLECULE
*****
 33 37 0 0 0
SMALL
GASTEIGER

@<TRIPOS>ATOM
      1 C          63.0685   83.6349   11.8486 C.ar    1  UNL1        0.0436
      2 C          63.9382   82.6882   11.0759 C.ar    1  UNL1        0.0142
      3 C          64.2839   82.9841    9.6466 C.ar    1  UNL1        0.0010
      4 C          63.7598   84.2268    8.9900 C.ar    1  UNL1       -0.0032
      5 C          62.8901   85.1736    9.7628 C.ar    1  UNL1       -0.0091
      6 C          62.5444   84.8776   11.1920 C.ar    1  UNL1       -0.0101
      7 C          61.6746   85.8244   11.9648 C.3     1  UNL1        0.0444
      8 C          61.1505   87.0671   11.3083 C.3     1  UNL1        0.0749
      9 N          61.4963   87.3630    9.8789 N.3     1  UNL1       -0.2934
     10 C          62.3660   86.4163    9.1062 C.3     1  UNL1        0.0954
     11 H          61.9666   88.2680    9.8711 H       1  UNL1        0.1236
     12 N          62.7227   83.3390   13.2779 N.pl3   1  UNL1       -0.3076
     13 C          62.2521   81.9690   13.6675 C.3     1  UNL1        0.1121
     14 C          63.2223   87.6350   17.4366 C.3     1  UNL1        0.0896
     15 N          63.0974   86.5610   16.3969 N.3     1  UNL1       -0.2714
     16 C          61.9651   85.5796   16.4648 C.3     1  UNL1        0.0738
     17 C          61.8402   84.5055   15.4251 C.3     1  UNL1        0.0371
     18 C          62.8476   84.4130   14.3176 C.3     1  UNL1        0.0756
     19 C          63.9799   85.3945   14.2498 C.3     1  UNL1        0.0371
     20 C          64.1048   86.4685   15.2894 C.3     1  UNL1        0.0738
     21 C          60.2808   88.0138   12.0810 C.3     1  UNL1        0.0886
     22 N          60.3434   89.4865   11.8031 N.3     1  UNL1       -0.2667
     23 C          59.0839   90.3011   11.7878 C.3     1  UNL1        0.0899
     24 C          61.6654   90.1446   11.5403 C.3     1  UNL1        0.0978
     25 C          62.0063   90.6176   10.1582 C.3     1  UNL1        0.0224
     26 C          63.3283   91.2757    9.8954 C.3     1  UNL1        0.0065
     27 C          64.3096   91.4608   11.0148 C.3     1  UNL1        0.0277
     28 C          63.9688   90.9879   12.3968 C.ar    1  UNL1       -0.0073
     29 C          64.9500   91.1731   13.5161 C.ar    1  UNL1       -0.0015
     30 C          64.6092   90.7001   14.8983 C.ar    1  UNL1        0.0203
     31 C          63.2871   90.0420   15.1610 C.ar    1  UNL1        0.0985
     32 N          62.3059   89.8568   14.0417 N.ar    1  UNL1       -0.2471
     33 C          62.6467   90.3298   12.6596 C.ar    1  UNL1        0.0695
@<TRIPOS>BOND
     1    14    15    1
     2    15    16    1
     3    16    17    1
     4    17    18    1
     5    18    12    1
     6    12    13    1
     7    12     1    1
     8     1     2   ar
     9     2     3   ar
    10     3     4   ar
    11     4     5   ar
    12     5     6   ar
    13     6     7    1
    14     7     8    1
    15     8    21    1
    16    21    22    1
    17    22    23    1
    18    24    22    1
    19    24    25    1
    20    25    26    1
    21    26    27    1
    22    27    28    1
    23    28    29   ar
    24    29    30   ar
    25    30    31   ar
    26    31    32   ar
    27    32    33   ar
    28     8     9    1
    29     9    10    1
    30    18    19    1
    31    19    20    1
    32    20    15    1
    33     6     1   ar
    34    33    24    1
    35    10     5    1
    36    33    28   ar
    37     9    11    1
@<TRIPOS>MOLECULE
*****
 33 37 0 0 0
SMALL
GASTEIGER

@<TRIPOS>ATOM
      1 C          61.5446   86.4781    9.4823 C.ar    1  UNL1        0.0436
      2 C          60.3567   86.3486    8.5757 C.ar    1  UNL1        0.0142
      3 C          59.2411   87.3482    8.6539 C.ar    1  UNL1        0.0010
      4 C          59.3134   88.4772    9.6388 C.ar    1  UNL1       -0.0032
      5 C          60.5013   88.6067   10.5454 C.ar    1  UNL1       -0.0091
      6 C          61.6169   87.6071   10.4671 C.ar    1  UNL1       -0.0101
      7 C          62.8050   87.7366   11.3738 C.3     1  UNL1        0.0444
      8 C          62.8773   88.8657   12.3587 C.3     1  UNL1        0.0749
      9 N          61.7616   89.8653   12.4369 N.3     1  UNL1       -0.2934
     10 C          60.5736   89.7358   11.5303 C.3     1  UNL1        0.0954
     11 H          62.1730   90.7806   12.2543 H       1  UNL1        0.1236
     12 N          62.6604   85.4785    9.4041 N.pl3   1  UNL1       -0.3076
     13 C          63.5081   85.3958    8.1693 C.3     1  UNL1        0.1121
     14 C          63.7322   81.8108   14.0300 C.3     1  UNL1        0.0896
     15 N          63.4643   82.7277   12.8735 N.3     1  UNL1       -0.2714
     16 C          62.5087   83.8732   13.0304 C.3     1  UNL1        0.0738
     17 C          62.2407   84.7901   11.8739 C.3     1  UNL1        0.0371
     18 C          62.9283   84.5616   10.5605 C.3     1  UNL1        0.0756
     19 C          63.8840   83.4160   10.4037 C.3     1  UNL1        0.0371
     20 C          64.1519   82.4991   11.5601 C.3     1  UNL1        0.0738
     21 C          64.0652   88.9952   13.2653 C.3     1  UNL1        0.0886
     22 N          64.0489   89.9932   14.3849 N.3     1  UNL1       -0.2667
     23 C          63.1340   89.7913   15.5564 C.3     1  UNL1        0.0899
     24 C          64.9476   91.1931   14.3332 C.3     1  UNL1        0.0978
     25 C          65.6726   91.6409   15.5677 C.3     1  UNL1        0.0224
     26 C          66.5712   92.8408   15.5160 C.3     1  UNL1        0.0065
     27 C          66.7449   93.5929   14.2299 C.3     1  UNL1        0.0277
     28 C          66.0199   93.1452   12.9955 C.ar    1  UNL1       -0.0073
     29 C          66.1935   93.8973   11.7093 C.ar    1  UNL1       -0.0015
     30 C          65.4685   93.4495   10.4748 C.ar    1  UNL1        0.0203
     31 C          64.5699   92.2496   10.5265 C.ar    1  UNL1        0.0985
     32 N          64.3962   91.4975   11.8127 N.ar    1  UNL1       -0.2471
     33 C          65.1212   91.9452   13.0471 C.ar    1  UNL1        0.0695
@<TRIPOS>BOND
     1    14    15    1
     2    15    16    1
     3    16    17    1
     4    17    18    1
     5    18    12    1
     6    12    13    1
     7    12     1    1
     8     1     2   ar
     9     2     3   ar
    10     3     4   ar
    11     4     5   ar
    12     5     6   ar
    13     6     7    1
    14     7     8    1
    15     8    21    1
    16    21    22    1
    17    22    23    1
    18    24    22    1
    19    24    25    1
    20    25    26    1
    21    26    27    1
    22    27    28    1
    23    28    29   ar
    24    29    30   ar
    25    30    31   ar
    26    31    32   ar
    27    32    33   ar
    28     8     9    1
    29     9    10    1
    30    18    19    1
    31    19    20    1
    32    20    15    1
    33     6     1   ar
    34    33    24    1
    35    10     5    1
    36    33    28   ar
    37     9    11    1
@<TRIPOS>MOLECULE
*****
 33 37 0 0 0
SMALL
GASTEIGER

@<TRIPOS>ATOM
      1 C          61.5172   86.3097    9.1811 C.ar    1  UNL1        0.0436
      2 C          60.3671   86.1172    8.2377 C.ar    1  UNL1        0.0142
      3 C          59.1909   87.0467    8.2896 C.ar    1  UNL1        0.0010
      4 C          59.1649   88.1685    9.2849 C.ar    1  UNL1       -0.0032
      5 C          60.3150   88.3610   10.2283 C.ar    1  UNL1       -0.0091
      6 C          61.4912   87.4316   10.1764 C.ar    1  UNL1       -0.0101
      7 C          62.6415   87.6240   11.1198 C.3     1  UNL1        0.0444
      8 C          62.6154   88.7459   12.1152 C.3     1  UNL1        0.0749
      9 N          61.4392   89.6754   12.1671 N.3     1  UNL1       -0.2934
     10 C          60.2890   89.4829   11.2237 C.3     1  UNL1        0.0954
     11 H          61.7995   90.6156   12.0042 H       1  UNL1        0.1236
     12 N          62.6935   85.3802    9.1292 N.pl3   1  UNL1       -0.3076
     13 C          63.5926   85.3748    7.9285 C.3     1  UNL1        0.1121
     14 C          63.8018   81.6844   13.7239 C.3     1  UNL1        0.0896
     15 N          63.5247   82.6083   12.5753 N.3     1  UNL1       -0.2714
     16 C          62.5798   83.7600   12.7502 C.3     1  UNL1        0.0738
     17 C          62.3027   84.6841   11.6015 C.3     1  UNL1        0.0371
     18 C          62.9705   84.4563   10.2778 C.3     1  UNL1        0.0756
     19 C          63.9155   83.3045   10.1029 C.3     1  UNL1        0.0371
     20 C          64.1926   82.3806   11.2516 C.3     1  UNL1        0.0738
     21 C          63.7656   88.9384   13.0586 C.3     1  UNL1        0.0886
     22 N          63.9108   90.2278   13.8110 N.3     1  UNL1       -0.2667
     23 C          63.2850   90.3802   15.1658 C.3     1  UNL1        0.0899
     24 C          64.6816   91.3650   13.2087 C.3     1  UNL1        0.0978
     25 C          64.4601   91.7449   11.7746 C.3     1  UNL1        0.0224
     26 C          65.2310   92.8820   11.1723 C.3     1  UNL1        0.0065
     27 C          66.2233   93.6392   12.0041 C.3     1  UNL1        0.0277
     28 C          66.4448   93.2593   13.4382 C.ar    1  UNL1       -0.0073
     29 C          67.4371   94.0166   14.2700 C.ar    1  UNL1       -0.0015
     30 C          67.6586   93.6366   15.7042 C.ar    1  UNL1        0.0203
     31 C          66.8877   92.4995   16.3064 C.ar    1  UNL1        0.0985
     32 N          65.8954   91.7423   15.4746 N.ar    1  UNL1       -0.2471
     33 C          65.6739   92.1222   14.0405 C.ar    1  UNL1        0.0695
@<TRIPOS>BOND
     1    14    15    1
     2    15    16    1
     3    16    17    1
     4    17    18    1
     5    18    12    1
     6    12    13    1
     7    12     1    1
     8     1     2   ar
     9     2     3   ar
    10     3     4   ar
    11     4     5   ar
    12     5     6   ar
    13     6     7    1
    14     7     8    1
    15     8    21    1
    16    21    22    1
    17    22    23    1
    18    24    22    1
    19    24    25    1
    20    25    26    1
    21    26    27    1
    22    27    28    1
    23    28    29   ar
    24    29    30   ar
    25    30    31   ar
    26    31    32   ar
    27    32    33   ar
    28     8     9    1
    29     9    10    1
    30    18    19    1
    31    19    20    1
    32    20    15    1
    33     6     1   ar
    34    33    24    1
    35    10     5    1
    36    33    28   ar
    37     9    11    1
@<TRIPOS>MOLECULE
*****
 33 37 0 0 0
SMALL
GASTEIGER

@<TRIPOS>ATOM
      1 C          62.9829   83.8610   12.4887 C.ar    1  UNL1        0.0436
      2 C          62.6080   82.4677   12.8987 C.ar    1  UNL1        0.0142
      3 C          62.4950   82.1187   14.3532 C.ar    1  UNL1        0.0010
      4 C          62.7570   83.1630   15.3976 C.ar    1  UNL1       -0.0032
      5 C          63.1319   84.5563   14.9875 C.ar    1  UNL1       -0.0091
      6 C          63.2449   84.9053   13.5331 C.ar    1  UNL1       -0.0101
      7 C          63.6199   86.2986   13.1230 C.3     1  UNL1        0.0444
      8 C          63.8819   87.3429   14.1674 C.3     1  UNL1        0.0749
      9 N          63.7689   86.9939   15.6219 N.3     1  UNL1       -0.2934
     10 C          63.3939   85.6006   16.0320 C.3     1  UNL1        0.0954
     11 H          63.0667   87.6172   16.0206 H       1  UNL1        0.1236
     12 N          63.0959   84.2100   11.0342 N.pl3   1  UNL1       -0.3076
     13 C          63.9863   83.4031   10.1363 C.3     1  UNL1        0.1121
     14 C          59.9866   88.8334    8.8081 C.3     1  UNL1        0.0896
     15 N          60.7639   87.6776    9.3646 N.3     1  UNL1       -0.2714
     16 C          60.5215   87.2189   10.7720 C.3     1  UNL1        0.0738
     17 C          61.2988   86.0630   11.3286 C.3     1  UNL1        0.0371
     18 C          62.3186   85.3658   10.4777 C.3     1  UNL1        0.0756
     19 C          62.5610   85.8245    9.0702 C.3     1  UNL1        0.0371
     20 C          61.7837   86.9804    8.5137 C.3     1  UNL1        0.0738
     21 C          64.2568   88.7362   13.7574 C.3     1  UNL1        0.0886
     22 N          64.1544   89.8615   14.7439 N.3     1  UNL1       -0.2667
     23 C          63.1658   89.7845   15.8695 C.3     1  UNL1        0.0899
     24 C          65.0405   91.0637   14.6049 C.3     1  UNL1        0.0978
     25 C          65.8134   91.5667   15.7880 C.3     1  UNL1        0.0224
     26 C          66.6995   92.7689   15.6490 C.3     1  UNL1        0.0065
     27 C          66.8128   93.4683   14.3268 C.3     1  UNL1        0.0277
     28 C          66.0400   92.9654   13.1437 C.ar    1  UNL1       -0.0073
     29 C          66.1533   93.6647   11.8216 C.ar    1  UNL1       -0.0015
     30 C          65.3804   93.1617   10.6384 C.ar    1  UNL1        0.0203
     31 C          64.4943   91.9595   10.7775 C.ar    1  UNL1        0.0985
     32 N          64.3810   91.2602   12.0996 N.ar    1  UNL1       -0.2471
     33 C          65.1538   91.7631   13.2827 C.ar    1  UNL1        0.0695
@<TRIPOS>BOND
     1    14    15    1
     2    15    16    1
     3    16    17    1
     4    17    18    1
     5    18    12    1
     6    12    13    1
     7    12     1    1
     8     1     2   ar
     9     2     3   ar
    10     3     4   ar
    11     4     5   ar
    12     5     6   ar
    13     6     7    1
    14     7     8    1
    15     8    21    1
    16    21    22    1
    17    22    23    1
    18    24    22    1
    19    24    25    1
    20    25    26    1
    21    26    27    1
    22    27    28    1
    23    28    29   ar
    24    29    30   ar
    25    30    31   ar
    26    31    32   ar
    27    32    33   ar
    28     8     9    1
    29     9    10    1
    30    18    19    1
    31    19    20    1
    32    20    15    1
    33     6     1   ar
    34    33    24    1
    35    10     5    1
    36    33    28   ar
    37     9    11    1
@<TRIPOS>MOLECULE
*****
 33 37 0 0 0
SMALL
GASTEIGER

@<TRIPOS>ATOM
      1 C          61.4354   86.4240    8.8909 C.ar    1  UNL1        0.0436
      2 C          60.3087   85.9053    8.0474 C.ar    1  UNL1        0.0142
      3 C          59.0795   86.7401    7.8422 C.ar    1  UNL1        0.0010
      4 C          58.9770   88.0936    8.4804 C.ar    1  UNL1       -0.0032
      5 C          60.1036   88.6124    9.3239 C.ar    1  UNL1       -0.0091
      6 C          61.3328   87.7776    9.5292 C.ar    1  UNL1       -0.0101
      7 C          62.4595   88.2963   10.3727 C.3     1  UNL1        0.0444
      8 C          62.3570   89.6499   11.0110 C.3     1  UNL1        0.0749
      9 N          61.1277   90.4847   10.8057 N.3     1  UNL1       -0.2934
     10 C          60.0011   89.9659    9.9622 C.3     1  UNL1        0.0954
     11 H          61.4339   91.3604   10.3818 H       1  UNL1        0.1236
     12 N          62.6646   85.5892    9.0962 N.pl3   1  UNL1       -0.3076
     13 C          63.7176   85.5298    8.0295 C.3     1  UNL1        0.1121
     14 C          63.3697   82.4877   14.1837 C.3     1  UNL1        0.0896
     15 N          63.1935   83.2631   12.9118 N.3     1  UNL1       -0.2714
     16 C          62.3518   84.5046   12.9009 C.3     1  UNL1        0.0738
     17 C          62.1755   85.2800   11.6289 C.3     1  UNL1        0.0371
     18 C          62.8409   84.8139   10.3680 C.3     1  UNL1        0.0756
     19 C          63.6826   83.5723   10.3790 C.3     1  UNL1        0.0371
     20 C          63.8589   82.7969   11.6509 C.3     1  UNL1        0.0738
     21 C          63.4836   90.1686   11.8545 C.3     1  UNL1        0.0886
     22 N          63.8060   89.5096   13.1629 N.3     1  UNL1       -0.2667
     23 C          63.8109   88.0133   13.2679 C.3     1  UNL1        0.0899
     24 C          64.1235   90.3469   14.3662 C.3     1  UNL1        0.0978
     25 C          63.2467   90.2769   15.5812 C.3     1  UNL1        0.0224
     26 C          63.5642   91.1142   16.7846 C.3     1  UNL1        0.0065
     27 C          64.7586   92.0216   16.7729 C.3     1  UNL1        0.0277
     28 C          65.6355   92.0916   15.5580 C.ar    1  UNL1       -0.0073
     29 C          66.8299   92.9990   15.5463 C.ar    1  UNL1       -0.0015
     30 C          67.7067   93.0690   14.3313 C.ar    1  UNL1        0.0203
     31 C          67.3892   92.2317   13.1280 C.ar    1  UNL1        0.0985
     32 N          66.1948   91.3243   13.1396 N.ar    1  UNL1       -0.2471
     33 C          65.3179   91.2543   14.3545 C.ar    1  UNL1        0.0695
@<TRIPOS>BOND
     1    14    15    1
     2    15    16    1
     3    16    17    1
     4    17    18    1
     5    18    12    1
     6    12    13    1
     7    12     1    1
     8     1     2   ar
     9     2     3   ar
    10     3     4   ar
    11     4     5   ar
    12     5     6   ar
    13     6     7    1
    14     7     8    1
    15     8    21    1
    16    21    22    1
    17    22    23    1
    18    24    22    1
    19    24    25    1
    20    25    26    1
    21    26    27    1
    22    27    28    1
    23    28    29   ar
    24    29    30   ar
    25    30    31   ar
    26    31    32   ar
    27    32    33   ar
    28     8     9    1
    29     9    10    1
    30    18    19    1
    31    19    20    1
    32    20    15    1
    33     6     1   ar
    34    33    24    1
    35    10     5    1
    36    33    28   ar
    37     9    11    1
