@<TRIPOS>MOLECULE
*****
 30 32 0 0 0
SMALL
GASTEIGER

@<TRIPOS>ATOM
      1 N          64.4236   87.7864   14.6349 N.am    1  UNL1       -0.2969
      2 C          63.9026   89.1900   14.7283 C.2     1  UNL1        0.2461
      3 O          62.7968   89.5172   15.6875 O.2     1  UNL1       -0.2701
      4 H          65.1494   87.5716   14.0053 H       1  UNL1        0.1501
      5 C          64.4873   90.2662   13.8624 C.ar    1  UNL1        0.0534
      6 C          63.8456   90.6037   12.5492 C.ar    1  UNL1        0.0045
      7 C          64.4303   91.6799   11.6834 C.ar    1  UNL1        0.0001
      8 C          65.6568   92.4187   12.1306 C.ar    1  UNL1        0.0001
      9 C          66.2985   92.0812   13.4437 C.ar    1  UNL1        0.0001
     10 C          65.7137   91.0049   14.3096 C.ar    1  UNL1        0.0045
     11 C          66.2415   93.4949   11.2647 C.ar    1  UNL1        0.0031
     12 C          67.0498   93.1282   10.0555 C.ar    1  UNL1        0.0207
     13 C          67.6345   94.2045    9.1896 C.ar    1  UNL1        0.0989
     14 N          67.4109   95.6475    9.5329 N.ar    1  UNL1       -0.2423
     15 C          66.6026   96.0142   10.7421 C.ar    1  UNL1        0.0989
     16 C          66.0178   94.9379   11.6080 C.ar    1  UNL1        0.0207
     17 C          63.8389   86.7102   15.5008 C.3     1  UNL1        0.1167
     18 C          63.9233   83.5862   13.0547 C.ar    1  UNL1        0.1383
     19 C          63.0167   82.6351   13.7781 C.ar    1  UNL1        0.0369
     20 C          62.3841   83.0424   15.0758 C.ar    1  UNL1        0.0028
     21 C          62.6582   84.4007   15.6500 C.ar    1  UNL1       -0.0024
     22 C          63.5648   85.3518   14.9266 C.ar    1  UNL1        0.0005
     23 C          64.1974   84.9445   13.6289 C.ar    1  UNL1        0.0343
     24 O          64.5559   83.1789   11.7570 O.3     1  UNL1       -0.4754
     25 C          63.7301   83.1190   10.5063 C.3     1  UNL1        0.2068
     26 C          63.4028   84.3799    9.7625 C.3     1  UNL1        0.0646
     27 C          62.4312   85.3634   10.3448 C.3     1  UNL1        0.0760
     28 C          61.1100   86.0862    8.2278 C.3     1  UNL1        0.0897
     29 N          61.8505   86.4443    9.4821 N.3     1  UNL1       -0.2702
     30 C          62.0103   87.8835    9.8738 C.3     1  UNL1        0.0897
@<TRIPOS>BOND
     1    28    29    1
     2    29    30    1
     3    29    27    1
     4    27    26    1
     5    26    25    1
     6    25    24    1
     7    24    18    1
     8    18    19   ar
     9    19    20   ar
    10    20    21   ar
    11    21    22   ar
    12    22    17    1
    13    17     1    1
    14     1     2   am
    15     2     3    2
    16     2     5    1
    17     5     6   ar
    18     6     7   ar
    19     7     8   ar
    20     8    11    1
    21    11    12   ar
    22    12    13   ar
    23    13    14   ar
    24    14    15   ar
    25    15    16   ar
    26     8     9   ar
    27     9    10   ar
    28    22    23   ar
    29    23    18   ar
    30    10     5   ar
    31    16    11   ar
    32     1     4    1
@<TRIPOS>MOLECULE
*****
 30 32 0 0 0
SMALL
GASTEIGER

@<TRIPOS>ATOM
      1 N          64.6760   88.0268   14.5388 N.am    1  UNL1       -0.2969
      2 C          63.9822   89.3554   14.4784 C.2     1  UNL1        0.2461
      3 O          62.7182   89.5774   15.2549 O.2     1  UNL1       -0.2701
      4 H          65.5056   87.8811   14.0291 H       1  UNL1        0.1501
      5 C          64.5525   90.4619   13.6415 C.ar    1  UNL1        0.0534
      6 C          63.9202   90.8100   12.3266 C.ar    1  UNL1        0.0045
      7 C          64.4905   91.9165   11.4897 C.ar    1  UNL1        0.0001
      8 C          65.6931   92.6750   11.9678 C.ar    1  UNL1        0.0001
      9 C          66.3254   92.3269   13.2828 C.ar    1  UNL1        0.0001
     10 C          65.7550   91.2204   14.1196 C.ar    1  UNL1        0.0045
     11 C          66.2634   93.7815   11.1310 C.ar    1  UNL1        0.0031
     12 C          66.0666   95.2106   11.5421 C.ar    1  UNL1        0.0207
     13 C          66.6369   96.3171   10.7052 C.ar    1  UNL1        0.0989
     14 N          67.4040   95.9946    9.4572 N.ar    1  UNL1       -0.2423
     15 C          67.6008   94.5655    9.0461 C.ar    1  UNL1        0.0989
     16 C          67.0305   93.4590    9.8830 C.ar    1  UNL1        0.0207
     17 C          64.1057   86.9203   15.3756 C.3     1  UNL1        0.1167
     18 C          62.9216   84.3525   12.5909 C.ar    1  UNL1        0.1383
     19 C          62.6801   83.1263   13.4204 C.ar    1  UNL1        0.0369
     20 C          62.9138   83.1647   14.9016 C.ar    1  UNL1        0.0028
     21 C          63.3890   84.4293   15.5533 C.ar    1  UNL1       -0.0024
     22 C          63.6305   85.6556   14.7239 C.ar    1  UNL1        0.0005
     23 C          63.3968   85.6171   13.2427 C.ar    1  UNL1        0.0343
     24 O          62.6880   84.3141   11.1097 O.3     1  UNL1       -0.4754
     25 C          61.7424   85.2897   10.4741 C.3     1  UNL1        0.2068
     26 C          62.2610   86.3221    9.5175 C.3     1  UNL1        0.0646
     27 C          62.0109   87.7782    9.7773 C.3     1  UNL1        0.0760
     28 C          60.3093   89.7374    9.9041 C.3     1  UNL1        0.0897
     29 N          60.7172   88.4050    9.3490 N.3     1  UNL1       -0.2702
     30 C          59.8313   87.6993    8.3654 C.3     1  UNL1        0.0897
@<TRIPOS>BOND
     1    28    29    1
     2    29    30    1
     3    29    27    1
     4    27    26    1
     5    26    25    1
     6    25    24    1
     7    24    18    1
     8    18    19   ar
     9    19    20   ar
    10    20    21   ar
    11    21    22   ar
    12    22    17    1
    13    17     1    1
    14     1     2   am
    15     2     3    2
    16     2     5    1
    17     5     6   ar
    18     6     7   ar
    19     7     8   ar
    20     8    11    1
    21    11    12   ar
    22    12    13   ar
    23    13    14   ar
    24    14    15   ar
    25    15    16   ar
    26     8     9   ar
    27     9    10   ar
    28    22    23   ar
    29    23    18   ar
    30    10     5   ar
    31    16    11   ar
    32     1     4    1
@<TRIPOS>MOLECULE
*****
 30 32 0 0 0
SMALL
GASTEIGER

@<TRIPOS>ATOM
      1 N          61.5576   90.2427   10.0808 N.am    1  UNL1       -0.2969
      2 C          61.8125   89.8830   11.5146 C.2     1  UNL1        0.2461
      3 O          60.8551   88.9887   12.2451 O.2     1  UNL1       -0.2701
      4 H          62.1859   90.8297    9.6014 H       1  UNL1        0.1501
      5 C          63.0248   90.4175   12.2179 C.ar    1  UNL1        0.0534
      6 C          63.8530   91.4900   11.5746 C.ar    1  UNL1        0.0045
      7 C          65.0653   92.0246   12.2779 C.ar    1  UNL1        0.0001
      8 C          65.4494   91.4866   13.6244 C.ar    1  UNL1        0.0001
      9 C          64.6212   90.4141   14.2677 C.ar    1  UNL1        0.0001
     10 C          63.4088   89.8795   13.5643 C.ar    1  UNL1        0.0045
     11 C          66.6617   92.0211   14.3277 C.ar    1  UNL1        0.0031
     12 C          66.5221   92.6773   15.6693 C.ar    1  UNL1        0.0207
     13 C          67.7344   93.2119   16.3725 C.ar    1  UNL1        0.0989
     14 N          69.0864   93.0902   15.7341 N.ar    1  UNL1       -0.2423
     15 C          69.2259   92.4340   14.3925 C.ar    1  UNL1        0.0989
     16 C          68.0136   91.8994   13.6893 C.ar    1  UNL1        0.0207
     17 C          60.3453   89.7082    9.3776 C.3     1  UNL1        0.1167
     18 C          61.5918   86.0728    8.3876 C.ar    1  UNL1        0.1383
     19 C          60.4093   85.5683    7.6149 C.ar    1  UNL1        0.0369
     20 C          59.2054   86.4438    7.4298 C.ar    1  UNL1        0.0028
     21 C          59.1841   87.8237    8.0173 C.ar    1  UNL1       -0.0024
     22 C          60.3666   88.3282    8.7900 C.ar    1  UNL1        0.0005
     23 C          61.5705   87.4528    8.9751 C.ar    1  UNL1        0.0343
     24 O          62.7957   85.1974    8.5727 O.3     1  UNL1       -0.4754
     25 C          63.1111   84.6322    9.9259 C.3     1  UNL1        0.2068
     26 C          63.8985   83.3609   10.0427 C.3     1  UNL1        0.0646
     27 C          64.3490   82.8788   11.3899 C.3     1  UNL1        0.0760
     28 C          62.7995   83.4003   13.4090 C.3     1  UNL1        0.0897
     29 N          63.3376   82.4279   12.4018 N.3     1  UNL1       -0.2702
     30 C          62.8644   81.0044   12.4063 C.3     1  UNL1        0.0897
@<TRIPOS>BOND
     1    28    29    1
     2    29    30    1
     3    29    27    1
     4    27    26    1
     5    26    25    1
     6    25    24    1
     7    24    18    1
     8    18    19   ar
     9    19    20   ar
    10    20    21   ar
    11    21    22   ar
    12    22    17    1
    13    17     1    1
    14     1     2   am
    15     2     3    2
    16     2     5    1
    17     5     6   ar
    18     6     7   ar
    19     7     8   ar
    20     8    11    1
    21    11    12   ar
    22    12    13   ar
    23    13    14   ar
    24    14    15   ar
    25    15    16   ar
    26     8     9   ar
    27     9    10   ar
    28    22    23   ar
    29    23    18   ar
    30    10     5   ar
    31    16    11   ar
    32     1     4    1
@<TRIPOS>MOLECULE
*****
 30 32 0 0 0
SMALL
GASTEIGER

@<TRIPOS>ATOM
      1 N          62.5187   88.4245   11.0176 N.am    1  UNL1       -0.2969
      2 C          62.9922   89.3588   12.0913 C.2     1  UNL1        0.2461
      3 O          62.7218   89.0437   13.5327 O.2     1  UNL1       -0.2701
      4 H          62.6962   88.6313   10.0716 H       1  UNL1        0.1501
      5 C          63.7362   90.6083   11.7236 C.ar    1  UNL1        0.0534
      6 C          63.5167   91.2450   10.3833 C.ar    1  UNL1        0.0045
      7 C          64.2606   92.4945   10.0156 C.ar    1  UNL1        0.0001
      8 C          65.2242   93.1074   10.9882 C.ar    1  UNL1        0.0001
      9 C          65.4437   92.4707   12.3286 C.ar    1  UNL1        0.0001
     10 C          64.6997   91.2212   12.6962 C.ar    1  UNL1        0.0045
     11 C          65.9682   94.3568   10.6205 C.ar    1  UNL1        0.0031
     12 C          66.8932   94.3589    9.4397 C.ar    1  UNL1        0.0207
     13 C          67.6372   95.6084    9.0720 C.ar    1  UNL1        0.0989
     14 N          67.4561   96.8559    9.8851 N.ar    1  UNL1       -0.2423
     15 C          66.5311   96.8538   11.0660 C.ar    1  UNL1        0.0989
     16 C          65.7871   95.6042   11.4336 C.ar    1  UNL1        0.0207
     17 C          61.7747   87.1750   11.3853 C.3     1  UNL1        0.1167
     18 C          63.1251   83.4681   11.8162 C.ar    1  UNL1        0.1383
     19 C          63.5219   83.1453   10.4061 C.ar    1  UNL1        0.0369
     20 C          63.3363   84.1657    9.3224 C.ar    1  UNL1        0.0028
     21 C          62.7539   85.5089    9.6488 C.ar    1  UNL1       -0.0024
     22 C          62.3571   85.8317   11.0589 C.ar    1  UNL1        0.0005
     23 C          62.5427   84.8113   12.1425 C.ar    1  UNL1        0.0343
     24 O          63.3108   82.4477   12.8998 O.3     1  UNL1       -0.4754
     25 C          62.3594   82.4028   14.0586 C.3     1  UNL1        0.2068
     26 C          62.6167   83.2442   15.2734 C.3     1  UNL1        0.0646
     27 C          63.8775   84.0508   15.3737 C.3     1  UNL1        0.0760
     28 C          64.6146   86.5111   14.9817 C.3     1  UNL1        0.0897
     29 N          63.8117   85.5019   15.7478 N.3     1  UNL1       -0.2702
     30 C          62.9430   85.9438   16.8881 C.3     1  UNL1        0.0897
@<TRIPOS>BOND
     1    28    29    1
     2    29    30    1
     3    29    27    1
     4    27    26    1
     5    26    25    1
     6    25    24    1
     7    24    18    1
     8    18    19   ar
     9    19    20   ar
    10    20    21   ar
    11    21    22   ar
    12    22    17    1
    13    17     1    1
    14     1     2   am
    15     2     3    2
    16     2     5    1
    17     5     6   ar
    18     6     7   ar
    19     7     8   ar
    20     8    11    1
    21    11    12   ar
    22    12    13   ar
    23    13    14   ar
    24    14    15   ar
    25    15    16   ar
    26     8     9   ar
    27     9    10   ar
    28    22    23   ar
    29    23    18   ar
    30    10     5   ar
    31    16    11   ar
    32     1     4    1
@<TRIPOS>MOLECULE
*****
 30 32 0 0 0
SMALL
GASTEIGER

@<TRIPOS>ATOM
      1 N          59.7465   89.2525    7.4447 N.am    1  UNL1       -0.2969
      2 C          59.4508   87.8582    7.9121 C.2     1  UNL1        0.2461
      3 O          58.2701   87.1164    7.3590 O.2     1  UNL1       -0.2701
      4 H          60.5214   89.7394    7.8076 H       1  UNL1        0.1501
      5 C          60.3356   87.2057    8.9325 C.ar    1  UNL1        0.0534
      6 C          60.2110   87.5770   10.3805 C.ar    1  UNL1        0.0045
      7 C          61.0958   86.9246   11.4009 C.ar    1  UNL1        0.0001
      8 C          62.1053   85.9007   10.9734 C.ar    1  UNL1        0.0001
      9 C          62.2299   85.5293    9.5254 C.ar    1  UNL1        0.0001
     10 C          61.3450   86.1819    8.5050 C.ar    1  UNL1        0.0045
     11 C          62.9901   85.2482   11.9938 C.ar    1  UNL1        0.0031
     12 C          63.4680   83.8421   11.7828 C.ar    1  UNL1        0.0207
     13 C          64.3528   83.1896   12.8032 C.ar    1  UNL1        0.0989
     14 N          64.7598   83.9432   14.0347 N.ar    1  UNL1       -0.2423
     15 C          64.2819   85.3493   14.2457 C.ar    1  UNL1        0.0989
     16 C          63.3971   86.0018   13.2252 C.ar    1  UNL1        0.0207
     17 C          58.8617   89.9050    6.4242 C.3     1  UNL1        0.1167
     18 C          61.5245   91.5934    4.0141 C.ar    1  UNL1        0.1383
     19 C          60.6532   92.5492    3.2542 C.ar    1  UNL1        0.0369
     20 C          59.1848   92.6235    3.5511 C.ar    1  UNL1        0.0028
     21 C          58.5876   91.7422    4.6077 C.ar    1  UNL1       -0.0024
     22 C          59.4589   90.7864    5.3675 C.ar    1  UNL1        0.0005
     23 C          60.9273   90.7120    5.0707 C.ar    1  UNL1        0.0343
     24 O          62.9929   91.5190    3.7172 O.3     1  UNL1       -0.4754
     25 C          63.4936   91.8049    2.3325 C.3     1  UNL1        0.2068
     26 C          63.8516   93.2074    1.9390 C.3     1  UNL1        0.0646
     27 C          64.9386   93.4502    0.9342 C.3     1  UNL1        0.0760
     28 C          63.7776   93.9923   -1.3260 C.3     1  UNL1        0.0897
     29 N          64.7033   94.3868   -0.2136 N.3     1  UNL1       -0.2702
     30 C          65.3937   95.7181   -0.2489 C.3     1  UNL1        0.0897
@<TRIPOS>BOND
     1    28    29    1
     2    29    30    1
     3    29    27    1
     4    27    26    1
     5    26    25    1
     6    25    24    1
     7    24    18    1
     8    18    19   ar
     9    19    20   ar
    10    20    21   ar
    11    21    22   ar
    12    22    17    1
    13    17     1    1
    14     1     2   am
    15     2     3    2
    16     2     5    1
    17     5     6   ar
    18     6     7   ar
    19     7     8   ar
    20     8    11    1
    21    11    12   ar
    22    12    13   ar
    23    13    14   ar
    24    14    15   ar
    25    15    16   ar
    26     8     9   ar
    27     9    10   ar
    28    22    23   ar
    29    23    18   ar
    30    10     5   ar
    31    16    11   ar
    32     1     4    1
@<TRIPOS>MOLECULE
*****
 30 32 0 0 0
SMALL
GASTEIGER

@<TRIPOS>ATOM
      1 N          62.7285   86.2665   10.9599 N.am    1  UNL1       -0.2969
      2 C          62.0034   87.5367   11.2929 C.2     1  UNL1        0.2461
      3 O          60.5188   87.5188   11.5065 O.2     1  UNL1       -0.2701
      4 H          63.7029   86.2782   10.8197 H       1  UNL1        0.1501
      5 C          62.7629   88.8246   11.4123 C.ar    1  UNL1        0.0534
      6 C          63.4795   89.1573   12.6874 C.ar    1  UNL1        0.0045
      7 C          64.2389   90.4453   12.8068 C.ar    1  UNL1        0.0001
      8 C          64.2818   91.4006   11.6512 C.ar    1  UNL1        0.0001
      9 C          63.5652   91.0680   10.3761 C.ar    1  UNL1        0.0001
     10 C          62.8057   89.7799   10.2567 C.ar    1  UNL1        0.0045
     11 C          65.0413   92.6886   11.7706 C.ar    1  UNL1        0.0031
     12 C          65.7314   93.0359   13.0563 C.ar    1  UNL1        0.0207
     13 C          66.4909   94.3239   13.1758 C.ar    1  UNL1        0.0989
     14 N          66.5603   95.2646   12.0094 N.ar    1  UNL1       -0.2423
     15 C          65.8701   94.9173   10.7237 C.ar    1  UNL1        0.0989
     16 C          65.1106   93.6293   10.6043 C.ar    1  UNL1        0.0207
     17 C          61.9691   84.9785   10.8404 C.3     1  UNL1        0.1167
     18 C          63.2208   82.6266   13.7819 C.ar    1  UNL1        0.1383
     19 C          63.3759   81.3231   13.0561 C.ar    1  UNL1        0.0369
     20 C          63.0621   81.2381   11.5917 C.ar    1  UNL1        0.0028
     21 C          62.5932   82.4565   10.8532 C.ar    1  UNL1       -0.0024
     22 C          62.4380   83.7600   11.5790 C.ar    1  UNL1        0.0005
     23 C          62.7518   83.8450   13.0433 C.ar    1  UNL1        0.0343
     24 O          63.5345   82.7117   15.2462 O.3     1  UNL1       -0.4754
     25 C          64.0642   83.9893   15.8268 C.3     1  UNL1        0.2068
     26 C          63.8131   85.2920   15.1268 C.3     1  UNL1        0.0646
     27 C          64.1876   86.5842   15.7902 C.3     1  UNL1        0.0760
     28 C          62.2999   86.4677   17.5715 C.3     1  UNL1        0.0897
     29 N          63.2089   87.2750   16.6929 N.3     1  UNL1       -0.2702
     30 C          63.1392   88.7733   16.7170 C.3     1  UNL1        0.0897
@<TRIPOS>BOND
     1    28    29    1
     2    29    30    1
     3    29    27    1
     4    27    26    1
     5    26    25    1
     6    25    24    1
     7    24    18    1
     8    18    19   ar
     9    19    20   ar
    10    20    21   ar
    11    21    22   ar
    12    22    17    1
    13    17     1    1
    14     1     2   am
    15     2     3    2
    16     2     5    1
    17     5     6   ar
    18     6     7   ar
    19     7     8   ar
    20     8    11    1
    21    11    12   ar
    22    12    13   ar
    23    13    14   ar
    24    14    15   ar
    25    15    16   ar
    26     8     9   ar
    27     9    10   ar
    28    22    23   ar
    29    23    18   ar
    30    10     5   ar
    31    16    11   ar
    32     1     4    1
@<TRIPOS>MOLECULE
*****
 30 32 0 0 0
SMALL
GASTEIGER

@<TRIPOS>ATOM
      1 N          62.7443   86.9135   12.0636 N.am    1  UNL1       -0.2969
      2 C          62.4142   88.3603   12.2831 C.2     1  UNL1        0.2461
      3 O          61.0514   88.8801   11.9330 O.2     1  UNL1       -0.2701
      4 H          63.6387   86.5724   12.2934 H       1  UNL1        0.1501
      5 C          63.4469   89.2871   12.8527 C.ar    1  UNL1        0.0534
      6 C          63.7383   90.5930   12.1746 C.ar    1  UNL1        0.0045
      7 C          64.7710   91.5198   12.7441 C.ar    1  UNL1        0.0001
      8 C          65.5123   91.1408   13.9919 C.ar    1  UNL1        0.0001
      9 C          65.2209   89.8350   14.6700 C.ar    1  UNL1        0.0001
     10 C          64.1882   88.9081   14.1004 C.ar    1  UNL1        0.0045
     11 C          66.5450   92.0677   14.5615 C.ar    1  UNL1        0.0031
     12 C          66.5062   93.5296   14.2281 C.ar    1  UNL1        0.0207
     13 C          67.5389   94.4565   14.7977 C.ar    1  UNL1        0.0989
     14 N          68.6105   93.9214   15.7007 N.ar    1  UNL1       -0.2423
     15 C          68.6493   92.4594   16.0341 C.ar    1  UNL1        0.0989
     16 C          67.6166   91.5325   15.4645 C.ar    1  UNL1        0.0207
     17 C          61.7116   85.9867   11.4941 C.3     1  UNL1        0.1167
     18 C          59.9622   86.5122    7.9708 C.ar    1  UNL1        0.1383
     19 C          60.9761   85.8924    7.0556 C.ar    1  UNL1        0.0369
     20 C          62.2352   85.3039    7.6198 C.ar    1  UNL1        0.0028
     21 C          62.4804   85.3354    9.0993 C.ar    1  UNL1       -0.0024
     22 C          61.4664   85.9552   10.0145 C.ar    1  UNL1        0.0005
     23 C          60.2073   86.5437    9.4502 C.ar    1  UNL1        0.0343
     24 O          58.7031   87.1007    7.4065 O.3     1  UNL1       -0.4754
     25 C          58.6281   88.5695    7.1118 C.3     1  UNL1        0.2068
     26 C          59.5837   89.1883    6.1352 C.3     1  UNL1        0.0646
     27 C          59.6536   90.6803    5.9969 C.3     1  UNL1        0.0760
     28 C          57.2676   91.1506    5.0827 C.3     1  UNL1        0.0897
     29 N          58.7479   91.3873    5.0326 N.3     1  UNL1       -0.2702
     30 C          59.3226   92.3312    4.0182 C.3     1  UNL1        0.0897
@<TRIPOS>BOND
     1    28    29    1
     2    29    30    1
     3    29    27    1
     4    27    26    1
     5    26    25    1
     6    25    24    1
     7    24    18    1
     8    18    19   ar
     9    19    20   ar
    10    20    21   ar
    11    21    22   ar
    12    22    17    1
    13    17     1    1
    14     1     2   am
    15     2     3    2
    16     2     5    1
    17     5     6   ar
    18     6     7   ar
    19     7     8   ar
    20     8    11    1
    21    11    12   ar
    22    12    13   ar
    23    13    14   ar
    24    14    15   ar
    25    15    16   ar
    26     8     9   ar
    27     9    10   ar
    28    22    23   ar
    29    23    18   ar
    30    10     5   ar
    31    16    11   ar
    32     1     4    1
@<TRIPOS>MOLECULE
*****
 30 32 0 0 0
SMALL
GASTEIGER

@<TRIPOS>ATOM
      1 N          64.6331   88.8393   14.6367 N.am    1  UNL1       -0.2969
      2 C          63.8415   87.8117   15.3901 C.2     1  UNL1        0.2461
      3 O          63.2550   88.1501   16.7286 O.2     1  UNL1       -0.2701
      4 H          65.0180   88.6173   13.7582 H       1  UNL1        0.1501
      5 C          63.6364   86.4459   14.8050 C.ar    1  UNL1        0.0534
      6 C          63.4760   86.2813   13.3227 C.ar    1  UNL1        0.0045
      7 C          63.2709   84.9155   12.7376 C.ar    1  UNL1        0.0001
      8 C          63.2263   83.7141   13.6348 C.ar    1  UNL1        0.0001
      9 C          63.3866   83.8787   15.1171 C.ar    1  UNL1        0.0001
     10 C          63.5917   85.2447   15.7022 C.ar    1  UNL1        0.0045
     11 C          63.0212   82.3483   13.0497 C.ar    1  UNL1        0.0031
     12 C          62.5412   81.2242   13.9192 C.ar    1  UNL1        0.0207
     13 C          62.3361   79.8584   13.3341 C.ar    1  UNL1        0.0989
     14 N          62.6110   79.6166   11.8794 N.ar    1  UNL1       -0.2423
     15 C          63.0911   80.7407   11.0099 C.ar    1  UNL1        0.0989
     16 C          63.2961   82.1066   11.5951 C.ar    1  UNL1        0.0207
     17 C          64.8382   90.2052   15.2218 C.3     1  UNL1        0.1167
     18 C          65.1612   92.5761   12.0557 C.ar    1  UNL1        0.1383
     19 C          66.1050   93.6187   12.5775 C.ar    1  UNL1        0.0369
     20 C          66.6266   93.5234   13.9806 C.ar    1  UNL1        0.0028
     21 C          66.2043   92.3856   14.8621 C.ar    1  UNL1       -0.0024
     22 C          65.2605   91.3431   14.3404 C.ar    1  UNL1        0.0005
     23 C          64.7389   91.4383   12.9372 C.ar    1  UNL1        0.0343
     24 O          64.6396   92.6714   10.6526 O.3     1  UNL1       -0.4754
     25 C          64.0012   91.4774   10.0070 C.3     1  UNL1        0.2068
     26 C          62.5712   91.1378   10.3068 C.3     1  UNL1        0.0646
     27 C          62.2152   89.7716   10.8136 C.3     1  UNL1        0.0760
     28 C          60.3838   87.9443   10.5748 C.3     1  UNL1        0.0897
     29 N          60.7768   89.3549   10.8998 N.3     1  UNL1       -0.2702
     30 C          59.7314   90.3490   11.3111 C.3     1  UNL1        0.0897
@<TRIPOS>BOND
     1    28    29    1
     2    29    30    1
     3    29    27    1
     4    27    26    1
     5    26    25    1
     6    25    24    1
     7    24    18    1
     8    18    19   ar
     9    19    20   ar
    10    20    21   ar
    11    21    22   ar
    12    22    17    1
    13    17     1    1
    14     1     2   am
    15     2     3    2
    16     2     5    1
    17     5     6   ar
    18     6     7   ar
    19     7     8   ar
    20     8    11    1
    21    11    12   ar
    22    12    13   ar
    23    13    14   ar
    24    14    15   ar
    25    15    16   ar
    26     8     9   ar
    27     9    10   ar
    28    22    23   ar
    29    23    18   ar
    30    10     5   ar
    31    16    11   ar
    32     1     4    1
@<TRIPOS>MOLECULE
*****
 30 32 0 0 0
SMALL
GASTEIGER

@<TRIPOS>ATOM
      1 N          64.1410   89.1662   14.9324 N.am    1  UNL1       -0.2969
      2 C          63.6034   88.0477   15.7752 C.2     1  UNL1        0.2461
      3 O          63.2338   88.2985   17.2071 O.2     1  UNL1       -0.2701
      4 H          64.3835   89.0016   13.9926 H       1  UNL1        0.1501
      5 C          63.4354   86.6786   15.1859 C.ar    1  UNL1        0.0534
      6 C          63.8896   86.4051   13.7827 C.ar    1  UNL1        0.0045
      7 C          63.7217   85.0360   13.1935 C.ar    1  UNL1        0.0001
      8 C          63.0995   83.9403   14.0074 C.ar    1  UNL1        0.0001
      9 C          62.6453   84.2138   15.4106 C.ar    1  UNL1        0.0001
     10 C          62.8133   85.5830   15.9998 C.ar    1  UNL1        0.0045
     11 C          62.9315   82.5712   13.4182 C.ar    1  UNL1        0.0031
     12 C          62.5310   81.4215   14.2945 C.ar    1  UNL1        0.0207
     13 C          62.3631   80.0524   13.7052 C.ar    1  UNL1        0.0989
     14 N          62.5956   79.8329   12.2396 N.ar    1  UNL1       -0.2423
     15 C          62.9961   80.9825   11.3634 C.ar    1  UNL1        0.0989
     16 C          63.1641   82.3517   11.9527 C.ar    1  UNL1        0.0207
     17 C          64.3089   90.5353   15.5216 C.3     1  UNL1        0.1167
     18 C          67.3265   92.0992   13.4726 C.ar    1  UNL1        0.1383
     19 C          67.9426   92.9897   14.5105 C.ar    1  UNL1        0.0369
     20 C          67.3475   93.0621   15.8855 C.ar    1  UNL1        0.0028
     21 C          66.1363   92.2440   16.2226 C.ar    1  UNL1       -0.0024
     22 C          65.5202   91.3535   15.1846 C.ar    1  UNL1        0.0005
     23 C          66.1153   91.2811   13.8096 C.ar    1  UNL1        0.0343
     24 O          67.9216   92.0268   12.0976 O.3     1  UNL1       -0.4754
     25 C          67.1069   92.4328   10.9054 C.3     1  UNL1        0.2068
     26 C          67.0795   93.8678   10.4692 C.3     1  UNL1        0.0646
     27 C          65.7699   94.5881   10.3421 C.3     1  UNL1        0.0760
     28 C          65.8615   96.8468   11.6227 C.3     1  UNL1        0.0897
     29 N          65.7365   96.0877   10.3350 N.3     1  UNL1       -0.2702
     30 C          65.5780   96.8283    9.0402 C.3     1  UNL1        0.0897
@<TRIPOS>BOND
     1    28    29    1
     2    29    30    1
     3    29    27    1
     4    27    26    1
     5    26    25    1
     6    25    24    1
     7    24    18    1
     8    18    19   ar
     9    19    20   ar
    10    20    21   ar
    11    21    22   ar
    12    22    17    1
    13    17     1    1
    14     1     2   am
    15     2     3    2
    16     2     5    1
    17     5     6   ar
    18     6     7   ar
    19     7     8   ar
    20     8    11    1
    21    11    12   ar
    22    12    13   ar
    23    13    14   ar
    24    14    15   ar
    25    15    16   ar
    26     8     9   ar
    27     9    10   ar
    28    22    23   ar
    29    23    18   ar
    30    10     5   ar
    31    16    11   ar
    32     1     4    1
