@<TRIPOS>MOLECULE
*****
 35 38 0 0 0
SMALL
GASTEIGER

@<TRIPOS>ATOM
      1 C          63.6849   90.2570   13.4387 C.ar    1  UNL1        0.1042
      2 C          64.6125   91.4336   13.3675 C.ar    1  UNL1        0.0335
      3 C          64.8754   92.1029   12.0511 C.ar    1  UNL1        0.1261
      4 C          64.2107   91.5956   10.8059 C.ar    1  UNL1        0.0234
      5 C          63.2831   90.4190   10.8770 C.ar    1  UNL1        0.0396
      6 C          63.0202   89.7497   12.1934 C.ar    1  UNL1        0.1549
      7 S          65.8031   93.2796   11.9801 S.O2    1  UNL1        0.0751
      8 O          65.8832   93.1263   10.4901 O.2     1  UNL1       -0.1499
      9 O          65.7229   93.4328   13.4700 O.2     1  UNL1       -0.1499
     10 N          66.7307   94.4562   11.9090 N.pl3   1  UNL1       -0.1925
     11 H          67.2714   94.7049   12.6932 H       1  UNL1        0.1758
     12 C          66.8345   95.2540   10.6429 C.ar    1  UNL1        0.1977
     13 N          67.9148   95.1311    9.6095 N.ar    1  UNL1       -0.1997
     14 C          67.6243   96.1158    8.5159 C.ar    1  UNL1        0.2082
     15 N          66.3644   96.8473    8.8735 N.ar    1  UNL1       -0.1840
     16 S          65.8763   96.3146   10.1880 S.2     1  UNL1        0.0508
     17 N          63.1591   88.9183   16.0715 N.1     1  UNL1       -0.1907
     18 C          63.4220   89.5877   14.7551 C.1     1  UNL1        0.1035
     19 O          62.0926   88.5730   12.2645 O.3     1  UNL1       -0.4528
     20 C          61.8435   87.7395   11.0425 C.ar    1  UNL1        0.1467
     21 C          61.2178   88.3579    9.8276 C.ar    1  UNL1        0.0375
     22 C          60.9687   87.5243    8.6056 C.ar    1  UNL1        0.0070
     23 C          61.3452   86.0724    8.5986 C.ar    1  UNL1        0.0717
     24 C          61.9708   85.4540    9.8136 C.ar    1  UNL1        0.0084
     25 C          62.2200   86.2875   11.0355 C.ar    1  UNL1        0.0522
     26 C          62.8456   85.6690   12.2504 C.ar    1  UNL1        0.0875
     27 C          62.7187   84.1939   12.4909 C.ar    1  UNL1        0.0399
     28 C          63.3443   83.5755   13.7059 C.ar    1  UNL1        0.1022
     29 N          64.0969   84.4322   14.6803 N.ar    1  UNL1       -0.2224
     30 C          64.2239   85.9074   14.4399 C.ar    1  UNL1        0.1989
     31 N          63.5983   86.5258   13.2249 N.ar    1  UNL1       -0.2238
     32 C          61.0960   85.2389    7.3767 C.3     1  UNL1        0.4186
     33 F          60.8468   84.4054    6.1547 F       1  UNL1       -0.1659
     34 F          62.5394   84.8311    7.3606 F       1  UNL1       -0.1659
     35 F          59.6527   85.6468    7.3928 F       1  UNL1       -0.1659
@<TRIPOS>BOND
     1    17    18    3
     2    18     1    1
     3     1     2   ar
     4     2     3   ar
     5     3     7    1
     6     7     8    2
     7     7     9    2
     8     7    10    1
     9    10    12    1
    10    12    13   ar
    11    13    14   ar
    12    14    15   ar
    13    15    16   ar
    14     3     4   ar
    15     4     5   ar
    16     5     6   ar
    17     6    19    1
    18    19    20    1
    19    20    21   ar
    20    21    22   ar
    21    22    23   ar
    22    23    32    1
    23    32    33    1
    24    32    34    1
    25    32    35    1
    26    23    24   ar
    27    24    25   ar
    28    25    26    1
    29    26    27   ar
    30    27    28   ar
    31    28    29   ar
    32    29    30   ar
    33    30    31   ar
    34     6     1   ar
    35    25    20   ar
    36    31    26   ar
    37    16    12   ar
    38    10    11    1
@<TRIPOS>MOLECULE
*****
 35 38 0 0 0
SMALL
GASTEIGER

@<TRIPOS>ATOM
      1 C          61.9903   88.3396   10.8585 C.ar    1  UNL1        0.1042
      2 C          61.1137   88.8756    9.7657 C.ar    1  UNL1        0.0335
      3 C          60.3600   87.9308    8.8773 C.ar    1  UNL1        0.1261
      4 C          60.4829   86.4499    9.0817 C.ar    1  UNL1        0.0234
      5 C          61.3595   85.9139   10.1745 C.ar    1  UNL1        0.0396
      6 C          62.1132   86.8587   11.0629 C.ar    1  UNL1        0.1549
      7 S          59.4834   88.4670    7.7845 S.O2    1  UNL1        0.0751
      8 O          59.2423   87.0705    7.2929 O.2     1  UNL1       -0.1499
      9 O          59.7245   89.8634    8.2761 O.2     1  UNL1       -0.1499
     10 N          58.6069   89.0030    6.6917 N.pl3   1  UNL1       -0.1925
     11 H          57.7266   88.5959    6.5225 H       1  UNL1        0.1758
     12 C          59.0715   90.1594    5.8568 C.ar    1  UNL1        0.1977
     13 N          60.4806   90.4144    5.4103 N.ar    1  UNL1       -0.1997
     14 C          60.4885   91.6764    4.5993 C.ar    1  UNL1        0.2082
     15 N          59.0843   92.2011    4.5447 N.ar    1  UNL1       -0.1840
     16 S          58.2086   91.2636    5.3219 S.2     1  UNL1        0.0508
     17 N          63.4976   90.2293   12.6353 N.1     1  UNL1       -0.1907
     18 C          62.7440   89.2844   11.7469 C.1     1  UNL1        0.1035
     19 O          62.9898   86.3226   12.1557 O.3     1  UNL1       -0.4528
     20 C          62.9128   84.8737   12.5362 C.ar    1  UNL1        0.1467
     21 C          62.8333   83.8215   11.4700 C.ar    1  UNL1        0.0375
     22 C          62.7563   82.3726   11.8506 C.ar    1  UNL1        0.0070
     23 C          62.7587   81.9759   13.2971 C.ar    1  UNL1        0.0717
     24 C          62.8382   83.0281   14.3632 C.ar    1  UNL1        0.0084
     25 C          62.9152   84.4769   13.9828 C.ar    1  UNL1        0.0522
     26 C          62.9947   85.5291   15.0489 C.ar    1  UNL1        0.0875
     27 C          62.3401   85.3001   16.3790 C.ar    1  UNL1        0.0399
     28 C          62.4196   86.3523   17.4451 C.ar    1  UNL1        0.1022
     29 N          63.1536   87.6335   17.1811 N.ar    1  UNL1       -0.2224
     30 C          63.8082   87.8626   15.8510 C.ar    1  UNL1        0.1989
     31 N          63.7287   86.8104   14.7849 N.ar    1  UNL1       -0.2238
     32 C          62.6817   80.5270   13.6776 C.3     1  UNL1        0.4186
     33 F          62.6046   79.0781   14.0580 F       1  UNL1       -0.1659
     34 F          64.1748   80.4835   13.8143 F       1  UNL1       -0.1659
     35 F          61.1886   80.5705   13.5408 F       1  UNL1       -0.1659
@<TRIPOS>BOND
     1    17    18    3
     2    18     1    1
     3     1     2   ar
     4     2     3   ar
     5     3     7    1
     6     7     8    2
     7     7     9    2
     8     7    10    1
     9    10    12    1
    10    12    13   ar
    11    13    14   ar
    12    14    15   ar
    13    15    16   ar
    14     3     4   ar
    15     4     5   ar
    16     5     6   ar
    17     6    19    1
    18    19    20    1
    19    20    21   ar
    20    21    22   ar
    21    22    23   ar
    22    23    32    1
    23    32    33    1
    24    32    34    1
    25    32    35    1
    26    23    24   ar
    27    24    25   ar
    28    25    26    1
    29    26    27   ar
    30    27    28   ar
    31    28    29   ar
    32    29    30   ar
    33    30    31   ar
    34     6     1   ar
    35    25    20   ar
    36    31    26   ar
    37    16    12   ar
    38    10    11    1
@<TRIPOS>MOLECULE
*****
 35 38 0 0 0
SMALL
GASTEIGER

@<TRIPOS>ATOM
      1 C          61.7318   87.2847   10.5020 C.ar    1  UNL1        0.1042
      2 C          60.9103   87.4448    9.2573 C.ar    1  UNL1        0.0335
      3 C          60.3609   88.7912    8.8894 C.ar    1  UNL1        0.1261
      4 C          60.6330   89.9774    9.7661 C.ar    1  UNL1        0.0234
      5 C          61.4546   89.8173   11.0108 C.ar    1  UNL1        0.0396
      6 C          62.0040   88.4709   11.3788 C.ar    1  UNL1        0.1549
      7 S          59.5393   88.9513    7.6445 S.O2    1  UNL1        0.0751
      8 O          59.4128   90.4209    7.9171 O.2     1  UNL1       -0.1499
      9 O          59.6658   87.4818    7.3720 O.2     1  UNL1       -0.1499
     10 N          58.7178   89.1115    6.3998 N.pl3   1  UNL1       -0.1925
     11 H          58.1009   88.3964    6.1218 H       1  UNL1        0.1758
     12 C          58.8362   90.3612    5.5786 C.ar    1  UNL1        0.1977
     13 N          60.1109   90.9575    5.0596 N.ar    1  UNL1       -0.1997
     14 C          59.7633   92.1989    4.2925 C.ar    1  UNL1        0.2082
     15 N          58.2736   92.3696    4.3375 N.ar    1  UNL1       -0.1840
     16 S          57.7007   91.2339    5.1324 S.2     1  UNL1        0.0508
     17 N          62.8307   84.5919   11.2380 N.1     1  UNL1       -0.1907
     18 C          62.2813   85.9383   10.8700 C.1     1  UNL1        0.1035
     19 O          62.8256   88.3108   12.6236 O.3     1  UNL1       -0.4528
     20 C          63.6863   89.4411   13.1047 C.ar    1  UNL1        0.1467
     21 C          64.0297   90.5693   12.1778 C.ar    1  UNL1        0.0375
     22 C          64.8905   91.6997   12.6590 C.ar    1  UNL1        0.0070
     23 C          65.4078   91.7018   14.0669 C.ar    1  UNL1        0.0717
     24 C          65.0643   90.5735   14.9938 C.ar    1  UNL1        0.0084
     25 C          64.2036   89.4432   14.5127 C.ar    1  UNL1        0.0522
     26 C          63.8601   88.3150   15.4396 C.ar    1  UNL1        0.0875
     27 C          63.1514   88.5950   16.7316 C.ar    1  UNL1        0.0399
     28 C          62.8080   87.4667   17.6585 C.ar    1  UNL1        0.1022
     29 N          63.1732   86.0585   17.2933 N.ar    1  UNL1       -0.2224
     30 C          63.8819   85.7784   16.0013 C.ar    1  UNL1        0.1989
     31 N          64.2253   86.9066   15.0744 N.ar    1  UNL1       -0.2238
     32 C          66.2685   92.8321   14.5480 C.3     1  UNL1        0.4186
     33 F          67.1292   93.9624   15.0292 F       1  UNL1       -0.1659
     34 F          66.8396   92.9840   13.1694 F       1  UNL1       -0.1659
     35 F          65.6974   92.6802   15.9267 F       1  UNL1       -0.1659
@<TRIPOS>BOND
     1    17    18    3
     2    18     1    1
     3     1     2   ar
     4     2     3   ar
     5     3     7    1
     6     7     8    2
     7     7     9    2
     8     7    10    1
     9    10    12    1
    10    12    13   ar
    11    13    14   ar
    12    14    15   ar
    13    15    16   ar
    14     3     4   ar
    15     4     5   ar
    16     5     6   ar
    17     6    19    1
    18    19    20    1
    19    20    21   ar
    20    21    22   ar
    21    22    23   ar
    22    23    32    1
    23    32    33    1
    24    32    34    1
    25    32    35    1
    26    23    24   ar
    27    24    25   ar
    28    25    26    1
    29    26    27   ar
    30    27    28   ar
    31    28    29   ar
    32    29    30   ar
    33    30    31   ar
    34     6     1   ar
    35    25    20   ar
    36    31    26   ar
    37    16    12   ar
    38    10    11    1
@<TRIPOS>MOLECULE
*****
 35 38 0 0 0
SMALL
GASTEIGER

@<TRIPOS>ATOM
      1 C          62.8559   90.2478   11.0176 C.ar    1  UNL1        0.1042
      2 C          63.7530   91.4498   11.0263 C.ar    1  UNL1        0.0335
      3 C          64.7265   91.6510   12.1497 C.ar    1  UNL1        0.1261
      4 C          64.8027   90.6502   13.2643 C.ar    1  UNL1        0.0234
      5 C          63.9056   89.4481   13.2555 C.ar    1  UNL1        0.0396
      6 C          62.9321   89.2469   12.1322 C.ar    1  UNL1        0.1549
      7 S          65.6236   92.8532   12.1584 S.O2    1  UNL1        0.0751
      8 O          65.4905   92.9416   13.6498 O.2     1  UNL1       -0.1499
      9 O          65.7567   92.7647   10.6669 O.2     1  UNL1       -0.1499
     10 N          66.5208   94.0552   12.1671 N.pl3   1  UNL1       -0.1925
     11 H          67.0266   94.2860   12.9796 H       1  UNL1        0.1758
     12 C          66.6472   94.9057   10.9380 C.ar    1  UNL1        0.1977
     13 N          67.6841   94.7551    9.8646 N.ar    1  UNL1       -0.1997
     14 C          67.4367   95.8124    8.8296 C.ar    1  UNL1        0.2082
     15 N          66.2470   96.6164    9.2635 N.ar    1  UNL1       -0.1840
     16 S          65.7591   96.0560   10.5665 S.2     1  UNL1        0.0508
     17 N          60.9090   89.8454    8.7708 N.1     1  UNL1       -0.1907
     18 C          61.8824   90.0466    9.8942 C.1     1  UNL1        0.1035
     19 O          62.0350   88.0448   12.1235 O.3     1  UNL1       -0.4528
     20 C          62.6197   86.6714   12.2712 C.ar    1  UNL1        0.1467
     21 C          63.4564   86.3375   13.4706 C.ar    1  UNL1        0.0375
     22 C          64.0412   84.9641   13.6183 C.ar    1  UNL1        0.0070
     23 C          63.7893   83.9246   12.5666 C.ar    1  UNL1        0.0717
     24 C          62.9526   84.2585   11.3673 C.ar    1  UNL1        0.0084
     25 C          62.3678   85.6318   11.2195 C.ar    1  UNL1        0.0522
     26 C          61.5312   85.9657   10.0201 C.ar    1  UNL1        0.0875
     27 C          61.9685   85.5255    8.6545 C.ar    1  UNL1        0.0399
     28 C          61.1318   85.8594    7.4552 C.ar    1  UNL1        0.1022
     29 N          59.8578   86.6335    7.6214 N.ar    1  UNL1       -0.2224
     30 C          59.4204   87.0738    8.9871 C.ar    1  UNL1        0.1989
     31 N          60.2571   86.7399   10.1864 N.ar    1  UNL1       -0.2238
     32 C          64.3741   82.5512   12.7144 C.3     1  UNL1        0.4186
     33 F          64.9589   81.1778   12.8621 F       1  UNL1       -0.1659
     34 F          64.7363   82.5489   11.2588 F       1  UNL1       -0.1659
     35 F          64.0118   82.5536   14.1699 F       1  UNL1       -0.1659
@<TRIPOS>BOND
     1    17    18    3
     2    18     1    1
     3     1     2   ar
     4     2     3   ar
     5     3     7    1
     6     7     8    2
     7     7     9    2
     8     7    10    1
     9    10    12    1
    10    12    13   ar
    11    13    14   ar
    12    14    15   ar
    13    15    16   ar
    14     3     4   ar
    15     4     5   ar
    16     5     6   ar
    17     6    19    1
    18    19    20    1
    19    20    21   ar
    20    21    22   ar
    21    22    23   ar
    22    23    32    1
    23    32    33    1
    24    32    34    1
    25    32    35    1
    26    23    24   ar
    27    24    25   ar
    28    25    26    1
    29    26    27   ar
    30    27    28   ar
    31    28    29   ar
    32    29    30   ar
    33    30    31   ar
    34     6     1   ar
    35    25    20   ar
    36    31    26   ar
    37    16    12   ar
    38    10    11    1
@<TRIPOS>MOLECULE
*****
 35 38 0 0 0
SMALL
GASTEIGER

@<TRIPOS>ATOM
      1 C          64.0053   88.1355   13.8635 C.ar    1  UNL1        0.1042
      2 C          64.6913   89.4336   14.1701 C.ar    1  UNL1        0.0335
      3 C          64.4770   90.6232   13.2819 C.ar    1  UNL1        0.1261
      4 C          63.5768   90.5147   12.0871 C.ar    1  UNL1        0.0234
      5 C          62.8907   89.2165   11.7804 C.ar    1  UNL1        0.0396
      6 C          63.1050   88.0269   12.6687 C.ar    1  UNL1        0.1549
      7 S          65.1631   91.9215   13.5886 S.O2    1  UNL1        0.0751
      8 O          65.3597   92.1641   12.1215 O.2     1  UNL1       -0.1499
      9 O          64.9665   91.6789   15.0557 O.2     1  UNL1       -0.1499
     10 N          65.8491   93.2196   13.8952 N.pl3   1  UNL1       -0.1925
     11 H          65.3953   94.0727   13.7069 H       1  UNL1        0.1758
     12 C          67.2267   93.2180   14.4889 C.ar    1  UNL1        0.1977
     13 N          67.6811   94.0315   15.6644 N.ar    1  UNL1       -0.1997
     14 C          69.1270   93.7189   15.9133 C.ar    1  UNL1        0.2082
     15 N          69.5661   92.7123   14.8915 N.ar    1  UNL1       -0.1840
     16 S          68.3917   92.4028   14.0112 S.2     1  UNL1        0.0508
     17 N          64.4337   85.7562   15.6399 N.1     1  UNL1       -0.1907
     18 C          64.2195   86.9458   14.7517 C.1     1  UNL1        0.1035
     19 O          62.4189   86.7287   12.3620 O.3     1  UNL1       -0.4528
     20 C          62.2950   86.2631   10.9415 C.ar    1  UNL1        0.1467
     21 C          61.8310   87.2141    9.8783 C.ar    1  UNL1        0.0375
     22 C          61.7071   86.7485    8.4577 C.ar    1  UNL1        0.0070
     23 C          62.0471   85.3320    8.1004 C.ar    1  UNL1        0.0717
     24 C          62.5112   84.3810    9.1635 C.ar    1  UNL1        0.0084
     25 C          62.6351   84.8465   10.5841 C.ar    1  UNL1        0.0522
     26 C          63.0991   83.8955   11.6472 C.ar    1  UNL1        0.0875
     27 C          62.4730   83.9304   13.0098 C.ar    1  UNL1        0.0399
     28 C          62.9370   82.9794   14.0730 C.ar    1  UNL1        0.1022
     29 N          64.0271   81.9935   13.7735 N.ar    1  UNL1       -0.2224
     30 C          64.6533   81.9586   12.4108 C.ar    1  UNL1        0.1989
     31 N          64.1892   82.9096   11.3477 N.ar    1  UNL1       -0.2238
     32 C          61.9232   84.8665    6.6799 C.3     1  UNL1        0.4186
     33 F          61.7992   84.4009    5.2593 F       1  UNL1       -0.1659
     34 F          63.4111   84.6910    6.6076 F       1  UNL1       -0.1659
     35 F          60.4353   85.0420    6.7522 F       1  UNL1       -0.1659
@<TRIPOS>BOND
     1    17    18    3
     2    18     1    1
     3     1     2   ar
     4     2     3   ar
     5     3     7    1
     6     7     8    2
     7     7     9    2
     8     7    10    1
     9    10    12    1
    10    12    13   ar
    11    13    14   ar
    12    14    15   ar
    13    15    16   ar
    14     3     4   ar
    15     4     5   ar
    16     5     6   ar
    17     6    19    1
    18    19    20    1
    19    20    21   ar
    20    21    22   ar
    21    22    23   ar
    22    23    32    1
    23    32    33    1
    24    32    34    1
    25    32    35    1
    26    23    24   ar
    27    24    25   ar
    28    25    26    1
    29    26    27   ar
    30    27    28   ar
    31    28    29   ar
    32    29    30   ar
    33    30    31   ar
    34     6     1   ar
    35    25    20   ar
    36    31    26   ar
    37    16    12   ar
    38    10    11    1
@<TRIPOS>MOLECULE
*****
 35 38 0 0 0
SMALL
GASTEIGER

@<TRIPOS>ATOM
      1 C          63.9240   89.5227   13.5857 C.ar    1  UNL1        0.1042
      2 C          64.6006   90.8614   13.5907 C.ar    1  UNL1        0.0335
      3 C          64.7234   91.6445   12.3172 C.ar    1  UNL1        0.1261
      4 C          64.1697   91.0888   11.0387 C.ar    1  UNL1        0.0234
      5 C          63.4931   89.7501   11.0337 C.ar    1  UNL1        0.0396
      6 C          63.3703   88.9670   12.3072 C.ar    1  UNL1        0.1549
      7 S          65.4000   92.9833   12.3222 S.O2    1  UNL1        0.0751
      8 O          65.7994   92.7759   13.7531 O.2     1  UNL1       -0.1499
      9 O          65.0006   93.1906   10.8914 O.2     1  UNL1       -0.1499
     10 N          66.0766   94.3220   12.3273 N.pl3   1  UNL1       -0.1925
     11 H          66.1822   94.8169   13.1718 H       1  UNL1        0.1758
     12 C          66.5922   94.9066   11.0458 C.ar    1  UNL1        0.1977
     13 N          67.5653   94.2552   10.1082 N.ar    1  UNL1       -0.1997
     14 C          67.7998   95.1913    8.9598 C.ar    1  UNL1        0.2082
     15 N          66.9717   96.4211    9.1876 N.ar    1  UNL1       -0.1840
     16 S          66.2254   96.2452   10.4768 S.2     1  UNL1        0.0508
     17 N          63.6784   87.9566   16.1326 N.1     1  UNL1       -0.1907
     18 C          63.8012   88.7397   14.8592 C.1     1  UNL1        0.1035
     19 O          62.6937   87.6282   12.3021 O.3     1  UNL1       -0.4528
     20 C          62.3213   86.9810   11.0013 C.ar    1  UNL1        0.1467
     21 C          63.1769   85.8862   10.4362 C.ar    1  UNL1        0.0375
     22 C          62.8045   85.2390    9.1352 C.ar    1  UNL1        0.0070
     23 C          61.5764   85.6866    8.3994 C.ar    1  UNL1        0.0717
     24 C          60.7208   86.7814    8.9644 C.ar    1  UNL1        0.0084
     25 C          61.0932   87.4286   10.2653 C.ar    1  UNL1        0.0522
     26 C          60.2376   88.5234   10.8304 C.ar    1  UNL1        0.0875
     27 C          60.2251   89.8759   10.1818 C.ar    1  UNL1        0.0399
     28 C          59.3694   90.9707   10.7469 C.ar    1  UNL1        0.1022
     29 N          58.5263   90.7131   11.9604 N.ar    1  UNL1       -0.2224
     30 C          58.5388   89.3606   12.6090 C.ar    1  UNL1        0.1989
     31 N          59.3945   88.2657   12.0440 N.ar    1  UNL1       -0.2238
     32 C          61.2040   85.0394    7.0985 C.3     1  UNL1        0.4186
     33 F          60.8316   84.3921    5.7975 F       1  UNL1       -0.1659
     34 F          59.7772   85.4559    7.2997 F       1  UNL1       -0.1659
     35 F          62.6309   84.6228    6.8973 F       1  UNL1       -0.1659
@<TRIPOS>BOND
     1    17    18    3
     2    18     1    1
     3     1     2   ar
     4     2     3   ar
     5     3     7    1
     6     7     8    2
     7     7     9    2
     8     7    10    1
     9    10    12    1
    10    12    13   ar
    11    13    14   ar
    12    14    15   ar
    13    15    16   ar
    14     3     4   ar
    15     4     5   ar
    16     5     6   ar
    17     6    19    1
    18    19    20    1
    19    20    21   ar
    20    21    22   ar
    21    22    23   ar
    22    23    32    1
    23    32    33    1
    24    32    34    1
    25    32    35    1
    26    23    24   ar
    27    24    25   ar
    28    25    26    1
    29    26    27   ar
    30    27    28   ar
    31    28    29   ar
    32    29    30   ar
    33    30    31   ar
    34     6     1   ar
    35    25    20   ar
    36    31    26   ar
    37    16    12   ar
    38    10    11    1
@<TRIPOS>MOLECULE
*****
 35 38 0 0 0
SMALL
GASTEIGER

@<TRIPOS>ATOM
      1 C          63.0702   88.8951   12.4571 C.ar    1  UNL1        0.1042
      2 C          63.1058   87.4042   12.6180 C.ar    1  UNL1        0.0335
      3 C          63.8463   86.7916   13.7696 C.ar    1  UNL1        0.1261
      4 C          64.5513   87.6698   14.7604 C.ar    1  UNL1        0.0234
      5 C          64.5157   89.1607   14.5995 C.ar    1  UNL1        0.0396
      6 C          63.7752   89.7734   13.4479 C.ar    1  UNL1        0.1549
      7 S          63.8818   85.3006   13.9304 S.O2    1  UNL1        0.0751
      8 O          62.5127   85.2028   13.3256 O.2     1  UNL1       -0.1499
      9 O          65.2510   85.3984   14.5353 O.2     1  UNL1       -0.1499
     10 N          63.9173   83.8097   14.0912 N.pl3   1  UNL1       -0.1925
     11 H          64.0747   83.4139   14.9789 H       1  UNL1        0.1758
     12 C          63.7130   82.9217   12.8996 C.ar    1  UNL1        0.1977
     13 N          64.3178   83.1167   11.5409 N.ar    1  UNL1       -0.1997
     14 C          63.8466   81.9983   10.6591 C.ar    1  UNL1        0.2082
     15 N          62.9507   81.1123   11.4729 N.ar    1  UNL1       -0.1840
     16 S          62.8681   81.6830   12.8577 S.2     1  UNL1        0.0508
     17 N          61.5891   90.1205   10.1539 N.1     1  UNL1       -0.1907
     18 C          62.3297   89.5078   11.3055 C.1     1  UNL1        0.1035
     19 O          63.7397   91.2643   13.2871 O.3     1  UNL1       -0.4528
     20 C          64.6253   91.9310   12.2766 C.ar    1  UNL1        0.1467
     21 C          64.2041   91.9984   10.8385 C.ar    1  UNL1        0.0375
     22 C          65.0899   92.6652    9.8280 C.ar    1  UNL1        0.0070
     23 C          66.3968   93.2644   10.2556 C.ar    1  UNL1        0.0717
     24 C          66.8180   93.1969   11.6937 C.ar    1  UNL1        0.0084
     25 C          65.9323   92.5303   12.7041 C.ar    1  UNL1        0.0522
     26 C          66.3536   92.4628   14.1422 C.ar    1  UNL1        0.0875
     27 C          67.7913   92.2165   14.4918 C.ar    1  UNL1        0.0399
     28 C          68.2125   92.1491   15.9299 C.ar    1  UNL1        0.1022
     29 N          67.1960   92.3279   17.0183 N.ar    1  UNL1       -0.2224
     30 C          65.7582   92.5742   16.6687 C.ar    1  UNL1        0.1989
     31 N          65.3370   92.6417   15.2307 N.ar    1  UNL1       -0.2238
     32 C          67.2824   93.9310    9.2452 C.3     1  UNL1        0.4186
     33 F          68.1681   94.5978    8.2346 F       1  UNL1       -0.1659
     34 F          68.0158   92.6394    9.0358 F       1  UNL1       -0.1659
     35 F          66.5491   95.2226    9.4545 F       1  UNL1       -0.1659
@<TRIPOS>BOND
     1    17    18    3
     2    18     1    1
     3     1     2   ar
     4     2     3   ar
     5     3     7    1
     6     7     8    2
     7     7     9    2
     8     7    10    1
     9    10    12    1
    10    12    13   ar
    11    13    14   ar
    12    14    15   ar
    13    15    16   ar
    14     3     4   ar
    15     4     5   ar
    16     5     6   ar
    17     6    19    1
    18    19    20    1
    19    20    21   ar
    20    21    22   ar
    21    22    23   ar
    22    23    32    1
    23    32    33    1
    24    32    34    1
    25    32    35    1
    26    23    24   ar
    27    24    25   ar
    28    25    26    1
    29    26    27   ar
    30    27    28   ar
    31    28    29   ar
    32    29    30   ar
    33    30    31   ar
    34     6     1   ar
    35    25    20   ar
    36    31    26   ar
    37    16    12   ar
    38    10    11    1
@<TRIPOS>MOLECULE
*****
 35 38 0 0 0
SMALL
GASTEIGER

@<TRIPOS>ATOM
      1 C          64.0262   87.9837   14.0411 C.ar    1  UNL1        0.1042
      2 C          64.7201   89.2704   14.3767 C.ar    1  UNL1        0.0335
      3 C          64.5948   90.4513   13.4603 C.ar    1  UNL1        0.1261
      4 C          63.7757   90.3454   12.2082 C.ar    1  UNL1        0.0234
      5 C          63.0818   89.0586   11.8726 C.ar    1  UNL1        0.0396
      6 C          63.2070   87.8778   12.7891 C.ar    1  UNL1        0.1549
      7 S          65.2888   91.7381   13.7960 S.O2    1  UNL1        0.0751
      8 O          65.8162   91.8193   12.3941 O.2     1  UNL1       -0.1499
      9 O          64.7614   91.6569   15.1978 O.2     1  UNL1       -0.1499
     10 N          65.9827   93.0249   14.1316 N.pl3   1  UNL1       -0.1925
     11 H          65.6108   93.8809   13.8184 H       1  UNL1        0.1758
     12 C          67.2433   93.0074   14.9444 C.ar    1  UNL1        0.1977
     13 N          67.9111   91.7888   15.5094 N.ar    1  UNL1       -0.1997
     14 C          69.1380   92.2336   16.2492 C.ar    1  UNL1        0.2082
     15 N          69.2283   93.7271   16.1413 N.ar    1  UNL1       -0.1840
     16 S          68.0573   94.2052   15.3350 S.2     1  UNL1        0.0508
     17 N          64.2768   85.6220   15.8740 N.1     1  UNL1       -0.1907
     18 C          64.1515   86.8028   14.9576 C.1     1  UNL1        0.1035
     19 O          62.5131   86.5910   12.4534 O.3     1  UNL1       -0.4528
     20 C          62.3709   86.1668   11.0217 C.ar    1  UNL1        0.1467
     21 C          63.1608   85.0022   10.5025 C.ar    1  UNL1        0.0375
     22 C          63.0185   84.5781    9.0706 C.ar    1  UNL1        0.0070
     23 C          62.0864   85.3186    8.1582 C.ar    1  UNL1        0.0717
     24 C          61.2964   86.4833    8.6774 C.ar    1  UNL1        0.0084
     25 C          61.4387   86.9074   10.1091 C.ar    1  UNL1        0.0522
     26 C          60.6487   88.0720   10.6284 C.ar    1  UNL1        0.0875
     27 C          60.6688   89.3794    9.8933 C.ar    1  UNL1        0.0399
     28 C          59.8789   90.5440   10.4125 C.ar    1  UNL1        0.1022
     29 N          59.0689   90.4013   11.6669 N.ar    1  UNL1       -0.2224
     30 C          59.0488   89.0939   12.4020 C.ar    1  UNL1        0.1989
     31 N          59.8387   87.9293   11.8828 N.ar    1  UNL1       -0.2238
     32 C          61.9442   84.8945    6.7265 C.3     1  UNL1        0.4186
     33 F          61.8019   84.4704    5.2947 F       1  UNL1       -0.1659
     34 F          63.4270   84.6856    6.6410 F       1  UNL1       -0.1659
     35 F          60.4613   85.1035    6.8119 F       1  UNL1       -0.1659
@<TRIPOS>BOND
     1    17    18    3
     2    18     1    1
     3     1     2   ar
     4     2     3   ar
     5     3     7    1
     6     7     8    2
     7     7     9    2
     8     7    10    1
     9    10    12    1
    10    12    13   ar
    11    13    14   ar
    12    14    15   ar
    13    15    16   ar
    14     3     4   ar
    15     4     5   ar
    16     5     6   ar
    17     6    19    1
    18    19    20    1
    19    20    21   ar
    20    21    22   ar
    21    22    23   ar
    22    23    32    1
    23    32    33    1
    24    32    34    1
    25    32    35    1
    26    23    24   ar
    27    24    25   ar
    28    25    26    1
    29    26    27   ar
    30    27    28   ar
    31    28    29   ar
    32    29    30   ar
    33    30    31   ar
    34     6     1   ar
    35    25    20   ar
    36    31    26   ar
    37    16    12   ar
    38    10    11    1
@<TRIPOS>MOLECULE
*****
 35 38 0 0 0
SMALL
GASTEIGER

@<TRIPOS>ATOM
      1 C          62.4378   89.5849   11.1124 C.ar    1  UNL1        0.1042
      2 C          63.2619   90.8099   11.3775 C.ar    1  UNL1        0.0335
      3 C          64.2175   90.8352   12.5334 C.ar    1  UNL1        0.1261
      4 C          64.3491   89.6356   13.4242 C.ar    1  UNL1        0.0234
      5 C          63.5251   88.4106   13.1590 C.ar    1  UNL1        0.0396
      6 C          62.5695   88.3852   12.0031 C.ar    1  UNL1        0.1549
      7 S          65.0416   92.0603   12.7985 S.O2    1  UNL1        0.0751
      8 O          64.7101   91.9673   14.2584 O.2     1  UNL1       -0.1499
      9 O          65.3730   92.1533   11.3386 O.2     1  UNL1       -0.1499
     10 N          65.8655   93.2853   13.0636 N.pl3   1  UNL1       -0.1925
     11 H          65.6025   94.1496   12.6725 H       1  UNL1        0.1758
     12 C          67.0903   93.1935   13.9248 C.ar    1  UNL1        0.1977
     13 N          67.3625   94.0007   15.1595 N.ar    1  UNL1       -0.1997
     14 C          68.6983   93.5844   15.7003 C.ar    1  UNL1        0.2082
     15 N          69.2516   92.5200   14.7998 N.ar    1  UNL1       -0.1840
     16 S          68.2578   92.2784   13.7025 S.2     1  UNL1        0.0508
     17 N          60.5266   89.5342    8.8006 N.1     1  UNL1       -0.1907
     18 C          61.4822   89.5595    9.9565 C.1     1  UNL1        0.1035
     19 O          61.7454   87.1602   11.7380 O.3     1  UNL1       -0.4528
     20 C          62.2619   85.8087   12.1340 C.ar    1  UNL1        0.1467
     21 C          62.6077   85.5281   13.5664 C.ar    1  UNL1        0.0375
     22 C          63.1242   84.1766   13.9623 C.ar    1  UNL1        0.0070
     23 C          63.2949   83.1058   12.9259 C.ar    1  UNL1        0.0717
     24 C          62.9491   83.3864   11.4935 C.ar    1  UNL1        0.0084
     25 C          62.4326   84.7378   11.0976 C.ar    1  UNL1        0.0522
     26 C          62.0868   85.0184    9.6652 C.ar    1  UNL1        0.0875
     27 C          62.9986   84.5536    8.5686 C.ar    1  UNL1        0.0399
     28 C          62.6527   84.8343    7.1362 C.ar    1  UNL1        0.1022
     29 N          61.3951   85.5796    6.8005 N.ar    1  UNL1       -0.2224
     30 C          60.4833   86.0445    7.8971 C.ar    1  UNL1        0.1989
     31 N          60.8291   85.7639    9.3295 N.ar    1  UNL1       -0.2238
     32 C          63.8114   81.7544   13.3219 C.3     1  UNL1        0.4186
     33 F          64.3279   80.4029   13.7178 F       1  UNL1       -0.1659
     34 F          62.6672   81.5975   14.2790 F       1  UNL1       -0.1659
     35 F          64.9556   81.9112   12.3647 F       1  UNL1       -0.1659
@<TRIPOS>BOND
     1    17    18    3
     2    18     1    1
     3     1     2   ar
     4     2     3   ar
     5     3     7    1
     6     7     8    2
     7     7     9    2
     8     7    10    1
     9    10    12    1
    10    12    13   ar
    11    13    14   ar
    12    14    15   ar
    13    15    16   ar
    14     3     4   ar
    15     4     5   ar
    16     5     6   ar
    17     6    19    1
    18    19    20    1
    19    20    21   ar
    20    21    22   ar
    21    22    23   ar
    22    23    32    1
    23    32    33    1
    24    32    34    1
    25    32    35    1
    26    23    24   ar
    27    24    25   ar
    28    25    26    1
    29    26    27   ar
    30    27    28   ar
    31    28    29   ar
    32    29    30   ar
    33    30    31   ar
    34     6     1   ar
    35    25    20   ar
    36    31    26   ar
    37    16    12   ar
    38    10    11    1
