@<TRIPOS>MOLECULE
*****
 32 36 0 0 0
SMALL
GASTEIGER

@<TRIPOS>ATOM
      1 C          62.9664   90.9241   11.5628 C.3     1  UNL1        0.0749
      2 C          64.2524   91.6925   11.4854 C.3     1  UNL1        0.0444
      3 C          65.1414   91.7901   12.6895 C.ar    1  UNL1       -0.0101
      4 C          64.7446   91.1193   13.9711 C.ar    1  UNL1       -0.0091
      5 C          65.6336   91.2168   15.1753 C.ar    1  UNL1       -0.0032
      6 C          66.9196   91.9853   15.0979 C.ar    1  UNL1        0.0010
      7 C          67.3164   92.6561   13.8163 C.ar    1  UNL1        0.0142
      8 C          66.4273   92.5585   12.6121 C.ar    1  UNL1        0.0436
      9 C          63.4587   90.3509   14.0486 C.3     1  UNL1        0.0954
     10 N          62.5696   90.2533   12.8444 N.3     1  UNL1       -0.2934
     11 H          61.6660   90.6429   13.1131 H       1  UNL1        0.1236
     12 N          66.8241   93.2293   11.3305 N.pl3   1  UNL1       -0.3049
     13 C          66.4053   94.6448   11.0638 C.3     1  UNL1        0.1079
     14 C          66.8021   95.3156    9.7822 C.3     1  UNL1        0.0903
     15 N          67.6178   94.5709    8.7672 N.3     1  UNL1       -0.2946
     16 C          68.0367   93.1555    9.0339 C.3     1  UNL1        0.0903
     17 C          67.6398   92.4847   10.3155 C.3     1  UNL1        0.1079
     18 H          68.4725   95.1089    8.6242 H       1  UNL1        0.1233
     19 C          62.0774   90.8265   10.3586 C.3     1  UNL1        0.0886
     20 N          60.7944   90.0529   10.4342 N.3     1  UNL1       -0.2667
     21 C          59.6526   90.5726   11.2564 C.3     1  UNL1        0.0899
     22 C          63.2501   83.7790   11.7974 C.3     1  UNL1        0.0326
     23 C          62.6009   85.0242   11.2699 C.ar    1  UNL1       -0.0030
     24 C          62.7420   86.3175   12.0165 C.ar    1  UNL1        0.0942
     25 N          62.0928   87.5626   11.4891 N.ar    1  UNL1       -0.2475
     26 C          61.3026   87.5145   10.2150 C.ar    1  UNL1        0.0694
     27 C          61.1616   86.2212    9.4684 C.ar    1  UNL1       -0.0076
     28 C          61.8107   84.9760    9.9959 C.ar    1  UNL1       -0.0058
     29 C          60.3713   86.1730    8.1943 C.3     1  UNL1        0.0276
     30 C          59.7221   87.4181    7.6669 C.3     1  UNL1        0.0065
     31 C          59.8632   88.7115    8.4136 C.3     1  UNL1        0.0224
     32 C          60.6534   88.7596    9.6876 C.3     1  UNL1        0.0978
@<TRIPOS>BOND
     1    22    23    1
     2    23    24   ar
     3    24    25   ar
     4    25    26   ar
     5    26    27   ar
     6    27    28   ar
     7    27    29    1
     8    29    30    1
     9    30    31    1
    10    31    32    1
    11    32    20    1
    12    20    21    1
    13    20    19    1
    14     1    19    1
    15     1     2    1
    16     2     3    1
    17     3     4   ar
    18     4     5   ar
    19     5     6   ar
    20     6     7   ar
    21     7     8   ar
    22     8    12    1
    23    12    13    1
    24    13    14    1
    25    14    15    1
    26    15    16    1
    27    16    17    1
    28     4     9    1
    29     9    10    1
    30    28    23   ar
    31    10     1    1
    32    32    26    1
    33     8     3   ar
    34    17    12    1
    35    15    18    1
    36    10    11    1
@<TRIPOS>MOLECULE
*****
 32 36 0 0 0
SMALL
GASTEIGER

@<TRIPOS>ATOM
      1 C          61.4974   89.1629   11.0042 C.3     1  UNL1        0.0749
      2 C          62.3201   89.1433   12.2584 C.3     1  UNL1        0.0444
      3 C          63.4338   90.1314   12.4404 C.ar    1  UNL1       -0.0101
      4 C          63.7250   91.1392   11.3682 C.ar    1  UNL1       -0.0091
      5 C          64.8388   92.1273   11.5501 C.ar    1  UNL1       -0.0032
      6 C          65.6614   92.1077   12.8043 C.ar    1  UNL1        0.0010
      7 C          65.3702   91.0999   13.8765 C.ar    1  UNL1        0.0142
      8 C          64.2564   90.1118   13.6945 C.ar    1  UNL1        0.0436
      9 C          62.9025   91.1588   10.1140 C.3     1  UNL1        0.0954
     10 N          61.7886   90.1707    9.9320 N.3     1  UNL1       -0.2934
     11 H          61.9969   89.6453    9.0829 H       1  UNL1        0.1236
     12 N          63.9652   89.1040   14.7668 N.pl3   1  UNL1       -0.3049
     13 C          64.3816   87.6744   14.5854 C.3     1  UNL1        0.1079
     14 C          64.0904   86.6666   15.6576 C.3     1  UNL1        0.0903
     15 N          63.3828   87.0885   16.9112 N.3     1  UNL1       -0.2946
     16 C          62.9664   88.5181   17.0925 C.3     1  UNL1        0.0903
     17 C          63.2576   89.5258   16.0203 C.3     1  UNL1        0.1079
     18 H          64.0017   86.8611   17.6894 H       1  UNL1        0.1233
     19 C          60.3837   88.1748   10.8223 C.3     1  UNL1        0.0886
     20 N          60.3222   87.3340    9.5815 N.3     1  UNL1       -0.2667
     21 C          59.2017   87.5230    8.6023 C.3     1  UNL1        0.0899
     22 C          63.8931   83.3541   13.9011 C.3     1  UNL1        0.0326
     23 C          63.2651   84.0917   12.7558 C.ar    1  UNL1       -0.0030
     24 C          62.2062   85.1214   13.0173 C.ar    1  UNL1        0.0942
     25 N          61.5782   85.8589   11.8721 N.ar    1  UNL1       -0.2475
     26 C          62.0091   85.5668   10.4653 C.ar    1  UNL1        0.0694
     27 C          63.0680   84.5372   10.2039 C.ar    1  UNL1       -0.0076
     28 C          63.6960   83.7996   11.3491 C.ar    1  UNL1       -0.0058
     29 C          63.4990   84.2450    8.7971 C.3     1  UNL1        0.0276
     30 C          62.8710   84.9826    7.6518 C.3     1  UNL1        0.0065
     31 C          61.8120   86.0123    7.9133 C.3     1  UNL1        0.0224
     32 C          61.3811   86.3044    9.3201 C.3     1  UNL1        0.0978
@<TRIPOS>BOND
     1    22    23    1
     2    23    24   ar
     3    24    25   ar
     4    25    26   ar
     5    26    27   ar
     6    27    28   ar
     7    27    29    1
     8    29    30    1
     9    30    31    1
    10    31    32    1
    11    32    20    1
    12    20    21    1
    13    20    19    1
    14     1    19    1
    15     1     2    1
    16     2     3    1
    17     3     4   ar
    18     4     5   ar
    19     5     6   ar
    20     6     7   ar
    21     7     8   ar
    22     8    12    1
    23    12    13    1
    24    13    14    1
    25    14    15    1
    26    15    16    1
    27    16    17    1
    28     4     9    1
    29     9    10    1
    30    28    23   ar
    31    10     1    1
    32    32    26    1
    33     8     3   ar
    34    17    12    1
    35    15    18    1
    36    10    11    1
@<TRIPOS>MOLECULE
*****
 32 36 0 0 0
SMALL
GASTEIGER

@<TRIPOS>ATOM
      1 C          64.2581   86.5288   14.5217 C.3     1  UNL1        0.0749
      2 C          63.6654   85.8995   13.2958 C.3     1  UNL1        0.0444
      3 C          63.2645   84.4542   13.3139 C.ar    1  UNL1       -0.0101
      4 C          63.4561   83.6382   14.5578 C.ar    1  UNL1       -0.0091
      5 C          63.0552   82.1929   14.5759 C.ar    1  UNL1       -0.0032
      6 C          62.4625   81.5636   13.3500 C.ar    1  UNL1        0.0010
      7 C          62.2708   82.3796   12.1061 C.ar    1  UNL1        0.0142
      8 C          62.6718   83.8249   12.0880 C.ar    1  UNL1        0.0436
      9 C          64.0488   84.2674   15.7837 C.3     1  UNL1        0.0954
     10 N          64.4498   85.7127   15.7657 N.3     1  UNL1       -0.2934
     11 H          65.4446   85.7451   15.9887 H       1  UNL1        0.1236
     12 N          62.4801   84.6410   10.8441 N.pl3   1  UNL1       -0.3049
     13 C          63.3649   84.4137    9.6543 C.3     1  UNL1        0.1079
     14 C          63.1732   85.2297    8.4103 C.3     1  UNL1        0.0903
     15 N          62.0967   86.2730    8.3563 N.3     1  UNL1       -0.2946
     16 C          61.2121   86.5003    9.5461 C.3     1  UNL1        0.0903
     17 C          61.4038   85.6842   10.7900 C.3     1  UNL1        0.1079
     18 H          61.4857   86.0256    7.5780 H       1  UNL1        0.1233
     19 C          64.6591   87.9740   14.5037 C.3     1  UNL1        0.0886
     20 N          63.6224   89.0374   14.2921 N.3     1  UNL1       -0.2667
     21 C          62.7631   89.4855   15.4370 C.3     1  UNL1        0.0899
     22 C          66.4954   94.6059   11.4659 C.3     1  UNL1        0.0326
     23 C          65.7328   93.3676   11.8333 C.ar    1  UNL1       -0.0030
     24 C          65.9102   92.7524   13.1898 C.ar    1  UNL1        0.0942
     25 N          65.1476   91.5141   13.5572 N.ar    1  UNL1       -0.2475
     26 C          64.2077   90.8909   12.5682 C.ar    1  UNL1        0.0694
     27 C          64.0303   91.5061   11.2117 C.ar    1  UNL1       -0.0076
     28 C          64.7929   92.7445   10.8443 C.ar    1  UNL1       -0.0058
     29 C          63.0904   90.8830   10.2226 C.3     1  UNL1        0.0276
     30 C          62.3278   89.6447   10.5900 C.3     1  UNL1        0.0065
     31 C          62.5052   89.0295   11.9466 C.3     1  UNL1        0.0224
     32 C          63.4451   89.6526   12.9356 C.3     1  UNL1        0.0978
@<TRIPOS>BOND
     1    22    23    1
     2    23    24   ar
     3    24    25   ar
     4    25    26   ar
     5    26    27   ar
     6    27    28   ar
     7    27    29    1
     8    29    30    1
     9    30    31    1
    10    31    32    1
    11    32    20    1
    12    20    21    1
    13    20    19    1
    14     1    19    1
    15     1     2    1
    16     2     3    1
    17     3     4   ar
    18     4     5   ar
    19     5     6   ar
    20     6     7   ar
    21     7     8   ar
    22     8    12    1
    23    12    13    1
    24    13    14    1
    25    14    15    1
    26    15    16    1
    27    16    17    1
    28     4     9    1
    29     9    10    1
    30    28    23   ar
    31    10     1    1
    32    32    26    1
    33     8     3   ar
    34    17    12    1
    35    15    18    1
    36    10    11    1
@<TRIPOS>MOLECULE
*****
 32 36 0 0 0
SMALL
GASTEIGER

@<TRIPOS>ATOM
      1 C          61.0233   86.9092   10.4967 C.3     1  UNL1        0.0749
      2 C          61.7943   86.2320   11.5908 C.3     1  UNL1        0.0444
      3 C          62.7480   85.1224   11.2603 C.ar    1  UNL1       -0.0101
      4 C          62.9306   84.6899    9.8356 C.ar    1  UNL1       -0.0091
      5 C          63.8842   83.5803    9.5051 C.ar    1  UNL1       -0.0032
      6 C          64.6553   82.9032   10.5992 C.ar    1  UNL1        0.0010
      7 C          64.4727   83.3357   12.0238 C.ar    1  UNL1        0.0142
      8 C          63.5190   84.4454   12.3544 C.ar    1  UNL1        0.0436
      9 C          62.1596   85.3670    8.7416 C.3     1  UNL1        0.0954
     10 N          61.2059   86.4767    9.0721 N.3     1  UNL1       -0.2934
     11 H          60.2886   86.1876    8.7322 H       1  UNL1        0.1236
     12 N          63.3364   84.8779   13.7790 N.pl3   1  UNL1       -0.3049
     13 C          64.1377   86.0231   14.3237 C.3     1  UNL1        0.1079
     14 C          63.9550   86.4556   15.7483 C.3     1  UNL1        0.0903
     15 N          62.9711   85.7430   16.6282 N.3     1  UNL1       -0.2946
     16 C          62.1699   84.5979   16.0835 C.3     1  UNL1        0.0903
     17 C          62.3525   84.1654   14.6589 C.3     1  UNL1        0.1079
     18 H          62.3029   86.4432   16.9500 H       1  UNL1        0.1233
     19 C          60.0696   88.0188   10.8273 C.3     1  UNL1        0.0886
     20 N          60.4962   89.1259   11.7452 N.3     1  UNL1       -0.2667
     21 C          59.7319   89.3889   13.0088 C.3     1  UNL1        0.0899
     22 C          65.6546   91.4452   15.6518 C.3     1  UNL1        0.0326
     23 C          64.6627   91.0763   14.5887 C.ar    1  UNL1       -0.0030
     24 C          63.4719   90.2323   14.9344 C.ar    1  UNL1        0.0942
     25 N          62.4800   89.8635   13.8713 N.ar    1  UNL1       -0.2475
     26 C          62.6789   90.3387   12.4626 C.ar    1  UNL1        0.0694
     27 C          63.8698   91.1827   12.1169 C.ar    1  UNL1       -0.0076
     28 C          64.8617   91.5515   13.1800 C.ar    1  UNL1       -0.0058
     29 C          64.0688   91.6579   10.7081 C.3     1  UNL1        0.0276
     30 C          63.0769   91.2891    9.6450 C.3     1  UNL1        0.0065
     31 C          61.8860   90.4450    9.9908 C.3     1  UNL1        0.0224
     32 C          61.6870   89.9698   11.3995 C.3     1  UNL1        0.0978
@<TRIPOS>BOND
     1    22    23    1
     2    23    24   ar
     3    24    25   ar
     4    25    26   ar
     5    26    27   ar
     6    27    28   ar
     7    27    29    1
     8    29    30    1
     9    30    31    1
    10    31    32    1
    11    32    20    1
    12    20    21    1
    13    20    19    1
    14     1    19    1
    15     1     2    1
    16     2     3    1
    17     3     4   ar
    18     4     5   ar
    19     5     6   ar
    20     6     7   ar
    21     7     8   ar
    22     8    12    1
    23    12    13    1
    24    13    14    1
    25    14    15    1
    26    15    16    1
    27    16    17    1
    28     4     9    1
    29     9    10    1
    30    28    23   ar
    31    10     1    1
    32    32    26    1
    33     8     3   ar
    34    17    12    1
    35    15    18    1
    36    10    11    1
@<TRIPOS>MOLECULE
*****
 32 36 0 0 0
SMALL
GASTEIGER

@<TRIPOS>ATOM
      1 C          63.1447   90.8222   13.3602 C.3     1  UNL1        0.0749
      2 C          64.3240   91.6399   12.9236 C.3     1  UNL1        0.0444
      3 C          65.3441   92.0822   13.9305 C.ar    1  UNL1       -0.0101
      4 C          65.1848   91.7069   15.3740 C.ar    1  UNL1       -0.0091
      5 C          66.2048   92.1492   16.3809 C.ar    1  UNL1       -0.0032
      6 C          67.3842   92.9669   15.9443 C.ar    1  UNL1        0.0010
      7 C          67.5434   93.3423   14.5008 C.ar    1  UNL1        0.0142
      8 C          66.5233   92.8999   13.4938 C.ar    1  UNL1        0.0436
      9 C          64.0056   90.8892   15.8106 C.3     1  UNL1        0.0954
     10 N          62.9855   90.4468   14.8037 N.3     1  UNL1       -0.2934
     11 H          62.0880   90.8237   15.1087 H       1  UNL1        0.1236
     12 N          66.6826   93.2753   12.0503 N.pl3   1  UNL1       -0.3049
     13 C          67.4328   92.3704   11.1184 C.3     1  UNL1        0.1079
     14 C          67.5921   92.7458    9.6749 C.3     1  UNL1        0.0903
     15 N          67.0010   94.0261    9.1633 N.3     1  UNL1       -0.2946
     16 C          66.2508   94.9309   10.0952 C.3     1  UNL1        0.0903
     17 C          66.0916   94.5555   11.5387 C.3     1  UNL1        0.1079
     18 H          66.3558   93.7740    8.4146 H       1  UNL1        0.1233
     19 C          62.1247   90.3799   12.3533 C.3     1  UNL1        0.0886
     20 N          62.5645   89.7167   11.0818 N.3     1  UNL1       -0.2667
     21 C          63.2508   90.5187   10.0160 C.3     1  UNL1        0.0899
     22 C          64.3283   84.2774   14.8966 C.3     1  UNL1        0.0326
     23 C          63.8257   85.2709   13.8915 C.ar    1  UNL1       -0.0030
     24 C          64.0722   86.7361   14.0972 C.ar    1  UNL1        0.0942
     25 N          63.5696   87.7296   13.0921 N.ar    1  UNL1       -0.2475
     26 C          62.8206   87.2580   11.8811 C.ar    1  UNL1        0.0694
     27 C          62.5741   85.7928   11.6754 C.ar    1  UNL1       -0.0076
     28 C          63.0767   84.7992   12.6805 C.ar    1  UNL1       -0.0058
     29 C          61.8251   85.3210   10.4644 C.3     1  UNL1        0.0276
     30 C          61.3225   86.3145    9.4592 C.3     1  UNL1        0.0065
     31 C          61.5690   87.7798    9.6650 C.3     1  UNL1        0.0224
     32 C          62.3180   88.2515   10.8760 C.3     1  UNL1        0.0978
@<TRIPOS>BOND
     1    22    23    1
     2    23    24   ar
     3    24    25   ar
     4    25    26   ar
     5    26    27   ar
     6    27    28   ar
     7    27    29    1
     8    29    30    1
     9    30    31    1
    10    31    32    1
    11    32    20    1
    12    20    21    1
    13    20    19    1
    14     1    19    1
    15     1     2    1
    16     2     3    1
    17     3     4   ar
    18     4     5   ar
    19     5     6   ar
    20     6     7   ar
    21     7     8   ar
    22     8    12    1
    23    12    13    1
    24    13    14    1
    25    14    15    1
    26    15    16    1
    27    16    17    1
    28     4     9    1
    29     9    10    1
    30    28    23   ar
    31    10     1    1
    32    32    26    1
    33     8     3   ar
    34    17    12    1
    35    15    18    1
    36    10    11    1
@<TRIPOS>MOLECULE
*****
 32 36 0 0 0
SMALL
GASTEIGER

@<TRIPOS>ATOM
      1 C          62.1953   87.4399   10.4268 C.3     1  UNL1        0.0749
      2 C          62.5676   86.5927   11.6074 C.3     1  UNL1        0.0444
      3 C          63.0585   85.1907   11.3994 C.ar    1  UNL1       -0.0101
      4 C          63.1772   84.6358   10.0109 C.ar    1  UNL1       -0.0091
      5 C          63.6681   83.2338    9.8029 C.ar    1  UNL1       -0.0032
      6 C          64.0404   82.3865   10.9835 C.ar    1  UNL1        0.0010
      7 C          63.9218   82.9414   12.3720 C.ar    1  UNL1        0.0142
      8 C          63.4308   84.3435   12.5799 C.ar    1  UNL1        0.0436
      9 C          62.8049   85.4829    8.8303 C.3     1  UNL1        0.0954
     10 N          62.3139   86.8850    9.0383 N.3     1  UNL1       -0.2934
     11 H          61.3850   86.9368    8.6201 H       1  UNL1        0.1236
     12 N          63.3121   84.8984   13.9685 N.pl3   1  UNL1       -0.3049
     13 C          64.2682   85.9545   14.4383 C.3     1  UNL1        0.1079
     14 C          64.1495   86.5094   15.8269 C.3     1  UNL1        0.0903
     15 N          63.0749   86.0082   16.7456 N.3     1  UNL1       -0.2946
     16 C          62.1189   84.9521   16.2757 C.3     1  UNL1        0.0903
     17 C          62.2375   84.3972   14.8871 C.3     1  UNL1        0.1079
     18 H          62.5129   86.8172   17.0104 H       1  UNL1        0.1233
     19 C          61.7044   88.8419   10.6348 C.3     1  UNL1        0.0886
     20 N          61.4882   89.3624   12.0250 N.3     1  UNL1       -0.2667
     21 C          60.1139   89.3479   12.6259 C.3     1  UNL1        0.0899
     22 C          66.4091   93.8474   10.3166 C.3     1  UNL1        0.0326
     23 C          65.4684   92.8599   10.9410 C.ar    1  UNL1       -0.0030
     24 C          64.3104   92.3250   10.1519 C.ar    1  UNL1        0.0942
     25 N          63.3696   91.3375   10.7762 N.ar    1  UNL1       -0.2475
     26 C          63.5870   90.8849   12.1897 C.ar    1  UNL1        0.0694
     27 C          64.7450   91.4198   12.9788 C.ar    1  UNL1       -0.0076
     28 C          65.6857   92.4073   12.3544 C.ar    1  UNL1       -0.0058
     29 C          64.9624   90.9672   14.3923 C.3     1  UNL1        0.0276
     30 C          64.0217   89.9797   15.0166 C.3     1  UNL1        0.0065
     31 C          62.8636   89.4447   14.2275 C.3     1  UNL1        0.0224
     32 C          62.6462   89.8973   12.8140 C.3     1  UNL1        0.0978
@<TRIPOS>BOND
     1    22    23    1
     2    23    24   ar
     3    24    25   ar
     4    25    26   ar
     5    26    27   ar
     6    27    28   ar
     7    27    29    1
     8    29    30    1
     9    30    31    1
    10    31    32    1
    11    32    20    1
    12    20    21    1
    13    20    19    1
    14     1    19    1
    15     1     2    1
    16     2     3    1
    17     3     4   ar
    18     4     5   ar
    19     5     6   ar
    20     6     7   ar
    21     7     8   ar
    22     8    12    1
    23    12    13    1
    24    13    14    1
    25    14    15    1
    26    15    16    1
    27    16    17    1
    28     4     9    1
    29     9    10    1
    30    28    23   ar
    31    10     1    1
    32    32    26    1
    33     8     3   ar
    34    17    12    1
    35    15    18    1
    36    10    11    1
@<TRIPOS>MOLECULE
*****
 32 36 0 0 0
SMALL
GASTEIGER

@<TRIPOS>ATOM
      1 C          63.1598   90.3894   12.4312 C.3     1  UNL1        0.0749
      2 C          64.2930   91.3459   12.2053 C.3     1  UNL1        0.0444
      3 C          65.0863   91.8575   13.3710 C.ar    1  UNL1       -0.0101
      4 C          64.7465   91.4125   14.7626 C.ar    1  UNL1       -0.0091
      5 C          65.5398   91.9241   15.9283 C.ar    1  UNL1       -0.0032
      6 C          66.6731   92.8806   15.7025 C.ar    1  UNL1        0.0010
      7 C          67.0129   93.3255   14.3108 C.ar    1  UNL1        0.0142
      8 C          66.2195   92.8139   13.1451 C.ar    1  UNL1        0.0436
      9 C          63.6133   90.4561   14.9885 C.3     1  UNL1        0.0954
     10 N          62.8199   89.9445   13.8228 N.3     1  UNL1       -0.2934
     11 H          61.8491   90.2102   13.9880 H       1  UNL1        0.1236
     12 N          66.5593   93.2588   11.7535 N.pl3   1  UNL1       -0.3049
     13 C          67.4158   92.3932   10.8775 C.3     1  UNL1        0.1079
     14 C          67.7556   92.8381    9.4859 C.3     1  UNL1        0.0903
     15 N          67.2390   94.1486    8.9703 N.3     1  UNL1       -0.2946
     16 C          66.3826   95.0142    9.8463 C.3     1  UNL1        0.0903
     17 C          66.0428   94.5692   11.2379 C.3     1  UNL1        0.1079
     18 H          66.6910   93.9412    8.1354 H       1  UNL1        0.1233
     19 C          62.3664   89.8779   11.2655 C.3     1  UNL1        0.0886
     20 N          61.4939   88.6682   11.4250 N.3     1  UNL1       -0.2667
     21 C          60.0338   88.8312   11.7276 C.3     1  UNL1        0.0899
     22 C          61.6891   84.3949    6.0444 C.3     1  UNL1        0.0326
     23 C          61.7872   85.1200    7.3538 C.ar    1  UNL1       -0.0030
     24 C          61.1996   86.4927    7.4968 C.ar    1  UNL1        0.0942
     25 N          61.2977   87.2178    8.8062 N.ar    1  UNL1       -0.2475
     26 C          61.9834   86.5703    9.9726 C.ar    1  UNL1        0.0694
     27 C          62.5709   85.1977    9.8296 C.ar    1  UNL1       -0.0076
     28 C          62.4728   84.4725    8.5202 C.ar    1  UNL1       -0.0058
     29 C          63.2567   84.5501   10.9961 C.3     1  UNL1        0.0276
     30 C          63.3548   85.2752   12.3055 C.3     1  UNL1        0.0065
     31 C          62.7671   86.6480   12.4484 C.3     1  UNL1        0.0224
     32 C          62.0815   87.2955   11.2820 C.3     1  UNL1        0.0978
@<TRIPOS>BOND
     1    22    23    1
     2    23    24   ar
     3    24    25   ar
     4    25    26   ar
     5    26    27   ar
     6    27    28   ar
     7    27    29    1
     8    29    30    1
     9    30    31    1
    10    31    32    1
    11    32    20    1
    12    20    21    1
    13    20    19    1
    14     1    19    1
    15     1     2    1
    16     2     3    1
    17     3     4   ar
    18     4     5   ar
    19     5     6   ar
    20     6     7   ar
    21     7     8   ar
    22     8    12    1
    23    12    13    1
    24    13    14    1
    25    14    15    1
    26    15    16    1
    27    16    17    1
    28     4     9    1
    29     9    10    1
    30    28    23   ar
    31    10     1    1
    32    32    26    1
    33     8     3   ar
    34    17    12    1
    35    15    18    1
    36    10    11    1
@<TRIPOS>MOLECULE
*****
 32 36 0 0 0
SMALL
GASTEIGER

@<TRIPOS>ATOM
      1 C          63.1981   89.1549   12.5597 C.3     1  UNL1        0.0749
      2 C          62.9542   87.8352   11.8895 C.3     1  UNL1        0.0444
      3 C          61.9111   87.7197   10.8178 C.ar    1  UNL1       -0.0101
      4 C          61.1119   88.9239   10.4162 C.ar    1  UNL1       -0.0091
      5 C          60.0688   88.8084    9.3445 C.ar    1  UNL1       -0.0032
      6 C          59.8248   87.4888    8.6744 C.ar    1  UNL1        0.0010
      7 C          60.6240   86.2846    9.0760 C.ar    1  UNL1        0.0142
      8 C          61.6672   86.4001   10.1478 C.ar    1  UNL1        0.0436
      9 C          61.3558   90.2435   11.0863 C.3     1  UNL1        0.0954
     10 N          62.3990   90.3590   12.1581 N.3     1  UNL1       -0.2934
     11 H          61.9233   90.6901   12.9974 H       1  UNL1        0.1236
     12 N          62.4663   85.1960   10.5494 N.pl3   1  UNL1       -0.3049
     13 C          62.4092   84.6949   11.9621 C.3     1  UNL1        0.1079
     14 C          63.2084   83.4908   12.3637 C.3     1  UNL1        0.0903
     15 N          64.0647   82.7876   11.3526 N.3     1  UNL1       -0.2946
     16 C          64.1218   83.2886    9.9399 C.3     1  UNL1        0.0903
     17 C          63.3227   84.4928    9.5383 C.3     1  UNL1        0.1079
     18 H          63.7374   81.8225   11.3097 H       1  UNL1        0.1233
     19 C          64.2412   89.2703   13.6314 C.3     1  UNL1        0.0886
     20 N          64.1488   90.3646   14.6533 N.3     1  UNL1       -0.2667
     21 C          63.0530   90.3437   15.6774 C.3     1  UNL1        0.0899
     22 C          66.3649   94.4136    9.5597 C.3     1  UNL1        0.0326
     23 C          66.0617   93.6801   10.8325 C.ar    1  UNL1       -0.0030
     24 C          65.0584   92.5650   10.8348 C.ar    1  UNL1        0.0942
     25 N          64.7552   91.8316   12.1076 N.ar    1  UNL1       -0.2475
     26 C          65.4553   92.2131   13.3782 C.ar    1  UNL1        0.0694
     27 C          66.4585   93.3282   13.3759 C.ar    1  UNL1       -0.0076
     28 C          66.7618   94.0617   12.1031 C.ar    1  UNL1       -0.0058
     29 C          67.1586   93.7098   14.6465 C.3     1  UNL1        0.0276
     30 C          66.8554   92.9763   15.9193 C.3     1  UNL1        0.0065
     31 C          65.8521   91.8612   15.9215 C.3     1  UNL1        0.0224
     32 C          65.1520   91.4796   14.6510 C.3     1  UNL1        0.0978
@<TRIPOS>BOND
     1    22    23    1
     2    23    24   ar
     3    24    25   ar
     4    25    26   ar
     5    26    27   ar
     6    27    28   ar
     7    27    29    1
     8    29    30    1
     9    30    31    1
    10    31    32    1
    11    32    20    1
    12    20    21    1
    13    20    19    1
    14     1    19    1
    15     1     2    1
    16     2     3    1
    17     3     4   ar
    18     4     5   ar
    19     5     6   ar
    20     6     7   ar
    21     7     8   ar
    22     8    12    1
    23    12    13    1
    24    13    14    1
    25    14    15    1
    26    15    16    1
    27    16    17    1
    28     4     9    1
    29     9    10    1
    30    28    23   ar
    31    10     1    1
    32    32    26    1
    33     8     3   ar
    34    17    12    1
    35    15    18    1
    36    10    11    1
@<TRIPOS>MOLECULE
*****
 32 36 0 0 0
SMALL
GASTEIGER

@<TRIPOS>ATOM
      1 C          61.4294   89.5392   11.7203 C.3     1  UNL1        0.0749
      2 C          61.7012   88.1506   11.2223 C.3     1  UNL1        0.0444
      3 C          61.0808   87.6785    9.9409 C.ar    1  UNL1       -0.0101
      4 C          60.1885   88.5949    9.1573 C.ar    1  UNL1       -0.0091
      5 C          59.5681   88.1228    7.8759 C.ar    1  UNL1       -0.0032
      6 C          59.8399   86.7342    7.3779 C.ar    1  UNL1        0.0010
      7 C          60.7323   85.8178    8.1614 C.ar    1  UNL1        0.0142
      8 C          61.3527   86.2899    9.4429 C.ar    1  UNL1        0.0436
      9 C          59.9166   89.9834    9.6553 C.3     1  UNL1        0.0954
     10 N          60.5370   90.4556   10.9368 N.3     1  UNL1       -0.2934
     11 H          59.7702   90.7198   11.5554 H       1  UNL1        0.1236
     12 N          62.2450   85.3735   10.2264 N.pl3   1  UNL1       -0.3049
     13 C          62.1270   85.3082   11.7204 C.3     1  UNL1        0.1079
     14 C          63.0193   84.3918   12.5039 C.3     1  UNL1        0.0903
     15 N          64.0297   83.5406   11.7935 N.3     1  UNL1       -0.2946
     16 C          64.1478   83.6059   10.2996 C.3     1  UNL1        0.0903
     17 C          63.2554   84.5224    9.5161 C.3     1  UNL1        0.1079
     18 H          63.8167   82.5715   12.0299 H       1  UNL1        0.1233
     19 C          62.0498   90.0113   13.0017 C.3     1  UNL1        0.0886
     20 N          63.5411   89.9982   13.1624 N.3     1  UNL1       -0.2667
     21 C          64.2069   88.8700   13.8931 C.3     1  UNL1        0.0899
     22 C          68.4251   93.8982   16.0237 C.3     1  UNL1        0.0326
     23 C          67.4105   93.2020   15.1659 C.ar    1  UNL1       -0.0030
     24 C          66.5850   92.0869   15.7359 C.ar    1  UNL1        0.0942
     25 N          65.5704   91.3907   14.8781 N.ar    1  UNL1       -0.2475
     26 C          65.3813   91.8096   13.4503 C.ar    1  UNL1        0.0694
     27 C          66.2068   92.9247   12.8803 C.ar    1  UNL1       -0.0076
     28 C          67.2214   93.6210   13.7381 C.ar    1  UNL1       -0.0058
     29 C          66.0177   93.3437   11.4524 C.3     1  UNL1        0.0276
     30 C          65.0031   92.6475   10.5946 C.3     1  UNL1        0.0065
     31 C          64.1776   91.5323   11.1646 C.3     1  UNL1        0.0224
     32 C          64.3667   91.1134   12.5924 C.3     1  UNL1        0.0978
@<TRIPOS>BOND
     1    22    23    1
     2    23    24   ar
     3    24    25   ar
     4    25    26   ar
     5    26    27   ar
     6    27    28   ar
     7    27    29    1
     8    29    30    1
     9    30    31    1
    10    31    32    1
    11    32    20    1
    12    20    21    1
    13    20    19    1
    14     1    19    1
    15     1     2    1
    16     2     3    1
    17     3     4   ar
    18     4     5   ar
    19     5     6   ar
    20     6     7   ar
    21     7     8   ar
    22     8    12    1
    23    12    13    1
    24    13    14    1
    25    14    15    1
    26    15    16    1
    27    16    17    1
    28     4     9    1
    29     9    10    1
    30    28    23   ar
    31    10     1    1
    32    32    26    1
    33     8     3   ar
    34    17    12    1
    35    15    18    1
    36    10    11    1
