@<TRIPOS>MOLECULE
*****
 38 42 0 0 0
SMALL
GASTEIGER

@<TRIPOS>ATOM
      1 C          62.2520   85.8481    9.0742 C.3     1  UNL1        0.1435
      2 C          62.8655   85.9725   10.4373 C.3     1  UNL1        0.1035
      3 C          62.5724   87.1749   11.2848 C.2     1  UNL1        0.1173
      4 O          63.1859   87.2993   12.6479 O.2     1  UNL1       -0.5097
      5 C          61.6658   88.2530   10.7692 C.2     1  UNL1        0.0905
      6 C          61.0523   88.1286    9.4060 C.2     1  UNL1        0.3400
      7 O          60.1457   89.2066    8.8903 O.2     1  UNL1       -0.2451
      8 O          61.3454   86.9261    8.5585 O.3     1  UNL1       -0.4524
      9 H          63.7522   86.6259   12.9700 H       1  UNL1        0.2917
     10 C          61.9124   85.2809    7.7277 C.3     1  UNL1        0.0372
     11 C          62.8856   84.7019    6.7440 C.3     1  UNL1        0.0035
     12 C          62.1146   84.2562    5.5369 C.3     1  UNL1        0.0001
     13 C          60.6649   84.5597    5.7746 C.3     1  UNL1        0.0001
     14 C          60.5400   85.1930    7.1286 C.3     1  UNL1        0.0035
     15 C          63.0406   84.5731    9.1222 C.3     1  UNL1        0.0452
     16 C          63.8347   84.2279   10.3471 C.3     1  UNL1        0.0300
     17 C          62.5703   82.2834   13.5673 C.ar    1  UNL1        0.0583
     18 C          63.0210   83.3983   12.6708 C.ar    1  UNL1        0.0105
     19 C          63.3840   83.1130   11.2436 C.ar    1  UNL1       -0.0197
     20 C          63.2964   81.7127   10.7130 C.ar    1  UNL1        0.0105
     21 C          62.8457   80.5977   11.6095 C.ar    1  UNL1        0.0583
     22 N          62.4827   80.8831   13.0366 N.ar    1  UNL1       -0.2540
     23 C          62.5613   83.8905   15.6085 C.3     1  UNL1        0.0067
     24 C          62.2072   82.5686   14.9945 C.3     1  UNL1        0.0458
     25 C          62.7581   79.1975   11.0787 C.3     1  UNL1        0.0458
     26 C          62.8055   78.9517    9.5998 C.3     1  UNL1        0.0067
     27 C          61.3727   89.4555   11.6166 C.3     1  UNL1        0.1032
     28 C          62.4982   90.2225   12.2451 C.ar    1  UNL1        0.1669
     29 N          62.9174   90.1530   13.6836 N.ar    1  UNL1       -0.1930
     30 C          64.0803   91.0812   13.8729 C.ar    1  UNL1        0.2536
     31 N          64.9052   91.4239   15.0779 N.ar    1  UNL1       -0.2143
     32 C          66.0297   92.4098   14.9613 C.ar    1  UNL1        0.0637
     33 C          66.8547   92.7525   16.1664 C.3     1  UNL1        0.0522
     34 C          66.3293   93.0530   13.6398 C.ar    1  UNL1        0.0296
     35 C          65.5044   92.7104   12.4348 C.ar    1  UNL1        0.0651
     36 C          65.8039   93.3536   11.1132 C.3     1  UNL1        0.0523
     37 N          64.3799   91.7245   12.5513 N.ar    1  UNL1       -0.1994
     38 N          63.4021   91.1937   11.5452 N.ar    1  UNL1       -0.1476
@<TRIPOS>BOND
     1    23    24    1
     2    24    17    1
     3    17    18   ar
     4    18    19   ar
     5    19    16    1
     6    16    15    1
     7     1    15    1
     8     1    10    1
     9    10    11    1
    10    11    12    1
    11    12    13    1
    12    13    14    1
    13     1     2    1
    14     2     3    1
    15     3     4    1
    16     3     5    2
    17     5    27    1
    18    27    28    1
    19    28    29   ar
    20    29    30   ar
    21    30    31   ar
    22    31    32   ar
    23    32    33    1
    24    32    34   ar
    25    34    35   ar
    26    35    36    1
    27    35    37   ar
    28    37    38   ar
    29     5     6    1
    30     6     7    2
    31     6     8    1
    32    19    20   ar
    33    20    21   ar
    34    21    25    1
    35    25    26    1
    36    21    22   ar
    37    22    17   ar
    38     8     1    1
    39    14    10    1
    40    38    28   ar
    41    37    30   ar
    42     4     9    1
@<TRIPOS>MOLECULE
*****
 38 42 0 0 0
SMALL
GASTEIGER

@<TRIPOS>ATOM
      1 C          62.2024   86.1133    9.5385 C.3     1  UNL1        0.1435
      2 C          62.7172   86.2533   10.9404 C.3     1  UNL1        0.1035
      3 C          62.5737   87.5587   11.6652 C.2     1  UNL1        0.1173
      4 O          63.0886   87.6988   13.0671 O.2     1  UNL1       -0.5097
      5 C          61.9153   88.7241   10.9882 C.2     1  UNL1        0.0905
      6 C          61.4005   88.5840    9.5863 C.2     1  UNL1        0.3400
      7 O          60.7421   89.7493    8.9091 O.2     1  UNL1       -0.2451
      8 O          61.5440   87.2786    8.8614 O.3     1  UNL1       -0.4524
      9 H          63.4998   86.9708   13.4901 H       1  UNL1        0.2917
     10 C          61.8770   85.4938    8.2118 C.3     1  UNL1        0.0372
     11 C          62.8401   84.7743    7.3147 C.3     1  UNL1        0.0035
     12 C          62.0897   84.3208    6.0976 C.3     1  UNL1        0.0001
     13 C          60.6627   84.7601    6.2425 C.3     1  UNL1        0.0001
     14 C          60.5313   85.4850    7.5491 C.3     1  UNL1        0.0035
     15 C          62.7478   84.7328    9.7548 C.3     1  UNL1        0.0452
     16 C          63.8260   84.5031   10.7720 C.3     1  UNL1        0.0300
     17 C          62.4224   81.9344   13.4518 C.ar    1  UNL1        0.0583
     18 C          62.7577   82.5648   12.1327 C.ar    1  UNL1        0.0105
     19 C          63.4908   83.8728   12.0912 C.ar    1  UNL1       -0.0197
     20 C          63.8886   84.5505   13.3689 C.ar    1  UNL1        0.0105
     21 C          63.5533   83.9201   14.6881 C.ar    1  UNL1        0.0583
     22 N          62.8202   82.6121   14.7296 N.ar    1  UNL1       -0.2540
     23 C          60.3340   80.5463   14.1312 C.3     1  UNL1        0.0067
     24 C          61.6893   80.6265   13.4934 C.3     1  UNL1        0.0458
     25 C          63.9512   84.5979   15.9658 C.3     1  UNL1        0.0458
     26 C          63.7934   86.0828   16.1077 C.3     1  UNL1        0.0067
     27 C          61.7717   90.0295   11.7129 C.3     1  UNL1        0.1032
     28 C          62.9734   90.6797   12.3321 C.ar    1  UNL1        0.1669
     29 N          63.4491   90.4918   13.7421 N.ar    1  UNL1       -0.1930
     30 C          64.6800   91.3279   13.9313 C.ar    1  UNL1        0.2536
     31 N          65.5781   91.5387   15.1141 N.ar    1  UNL1       -0.2143
     32 C          66.7612   92.4542   15.0036 C.ar    1  UNL1        0.0637
     33 C          67.6595   92.6649   16.1864 C.3     1  UNL1        0.0522
     34 C          67.0462   93.1589   13.7106 C.ar    1  UNL1        0.0296
     35 C          66.1480   92.9481   12.5278 C.ar    1  UNL1        0.0651
     36 C          66.4330   93.6529   11.2347 C.3     1  UNL1        0.0523
     37 N          64.9649   92.0327   12.6382 N.ar    1  UNL1       -0.1994
     38 N          63.9102   91.6320   11.6498 N.ar    1  UNL1       -0.1476
@<TRIPOS>BOND
     1    23    24    1
     2    24    17    1
     3    17    18   ar
     4    18    19   ar
     5    19    16    1
     6    16    15    1
     7     1    15    1
     8     1    10    1
     9    10    11    1
    10    11    12    1
    11    12    13    1
    12    13    14    1
    13     1     2    1
    14     2     3    1
    15     3     4    1
    16     3     5    2
    17     5    27    1
    18    27    28    1
    19    28    29   ar
    20    29    30   ar
    21    30    31   ar
    22    31    32   ar
    23    32    33    1
    24    32    34   ar
    25    34    35   ar
    26    35    36    1
    27    35    37   ar
    28    37    38   ar
    29     5     6    1
    30     6     7    2
    31     6     8    1
    32    19    20   ar
    33    20    21   ar
    34    21    25    1
    35    25    26    1
    36    21    22   ar
    37    22    17   ar
    38     8     1    1
    39    14    10    1
    40    38    28   ar
    41    37    30   ar
    42     4     9    1
@<TRIPOS>MOLECULE
*****
 38 42 0 0 0
SMALL
GASTEIGER

@<TRIPOS>ATOM
      1 C          62.1799   86.1485    9.6117 C.3     1  UNL1        0.1435
      2 C          62.6743   86.2726   11.0224 C.3     1  UNL1        0.1035
      3 C          62.5562   87.5810   11.7462 C.2     1  UNL1        0.1173
      4 O          63.0506   87.7051   13.1569 O.2     1  UNL1       -0.5097
      5 C          61.9437   88.7655   11.0592 C.2     1  UNL1        0.0905
      6 C          61.4493   88.6415    9.6485 C.2     1  UNL1        0.3400
      7 O          60.8368   89.8259    8.9615 O.2     1  UNL1       -0.2451
      8 O          61.5673   87.3329    8.9247 O.3     1  UNL1       -0.4524
      9 H          63.4332   86.9653   13.5860 H       1  UNL1        0.2917
     10 C          61.8595   85.5396    8.2788 C.3     1  UNL1        0.0372
     11 C          62.8236   84.8176    7.3847 C.3     1  UNL1        0.0035
     12 C          62.0788   84.3776    6.1593 C.3     1  UNL1        0.0001
     13 C          60.6544   84.8277    6.2959 C.3     1  UNL1        0.0001
     14 C          60.5189   85.5459    7.6059 C.3     1  UNL1        0.0035
     15 C          62.6811   84.7526    9.8357 C.3     1  UNL1        0.0452
     16 C          63.7907   84.5020   10.8134 C.3     1  UNL1        0.0300
     17 C          63.6249   83.9303   14.7371 C.ar    1  UNL1        0.0583
     18 C          63.9241   84.5568   13.4075 C.ar    1  UNL1        0.0105
     19 C          63.4915   83.8755   12.1431 C.ar    1  UNL1       -0.0197
     20 C          62.7598   82.5677   12.2084 C.ar    1  UNL1        0.0105
     21 C          62.4606   81.9412   13.5380 C.ar    1  UNL1        0.0583
     22 N          62.8932   82.6225   14.8024 N.ar    1  UNL1       -0.2540
     23 C          63.4322   85.9146   16.4031 C.3     1  UNL1        0.0067
     24 C          64.0575   84.6116   16.0016 C.3     1  UNL1        0.0458
     25 C          61.7288   80.6334   13.6032 C.3     1  UNL1        0.0458
     26 C          60.3338   80.5812   14.1519 C.3     1  UNL1        0.0067
     27 C          61.8256   90.0741   11.7829 C.3     1  UNL1        0.1032
     28 C          63.0422   90.7083   12.3893 C.ar    1  UNL1        0.1669
     29 N          63.5894   90.4345   13.7588 N.ar    1  UNL1       -0.1930
     30 C          64.8106   91.2846   13.9485 C.ar    1  UNL1        0.2536
     31 N          65.7604   91.4342   15.0997 N.ar    1  UNL1       -0.2143
     32 C          66.9179   92.3831   14.9986 C.ar    1  UNL1        0.0637
     33 C          67.8678   92.5328   16.1499 C.3     1  UNL1        0.0522
     34 C          67.1254   93.1822   13.7464 C.ar    1  UNL1        0.0296
     35 C          66.1755   93.0326   12.5951 C.ar    1  UNL1        0.0651
     36 C          66.3831   93.8318   11.3428 C.3     1  UNL1        0.0523
     37 N          65.0181   92.0838   12.6962 N.ar    1  UNL1       -0.1994
     38 N          63.9252   91.7276   11.7325 N.ar    1  UNL1       -0.1476
@<TRIPOS>BOND
     1    23    24    1
     2    24    17    1
     3    17    18   ar
     4    18    19   ar
     5    19    16    1
     6    16    15    1
     7     1    15    1
     8     1    10    1
     9    10    11    1
    10    11    12    1
    11    12    13    1
    12    13    14    1
    13     1     2    1
    14     2     3    1
    15     3     4    1
    16     3     5    2
    17     5    27    1
    18    27    28    1
    19    28    29   ar
    20    29    30   ar
    21    30    31   ar
    22    31    32   ar
    23    32    33    1
    24    32    34   ar
    25    34    35   ar
    26    35    36    1
    27    35    37   ar
    28    37    38   ar
    29     5     6    1
    30     6     7    2
    31     6     8    1
    32    19    20   ar
    33    20    21   ar
    34    21    25    1
    35    25    26    1
    36    21    22   ar
    37    22    17   ar
    38     8     1    1
    39    14    10    1
    40    38    28   ar
    41    37    30   ar
    42     4     9    1
@<TRIPOS>MOLECULE
*****
 38 42 0 0 0
SMALL
GASTEIGER

@<TRIPOS>ATOM
      1 C          61.6414   87.3787   10.2580 C.3     1  UNL1        0.1435
      2 C          61.2467   88.8258   10.2533 C.3     1  UNL1        0.1035
      3 C          60.3088   89.3441    9.2037 C.2     1  UNL1        0.1173
      4 O          59.9141   90.7912    9.1990 O.2     1  UNL1       -0.5097
      5 C          59.7655   88.4151    8.1587 C.2     1  UNL1        0.0905
      6 C          60.1602   86.9680    8.1634 C.2     1  UNL1        0.3400
      7 O          59.6169   86.0390    7.1185 O.2     1  UNL1       -0.2451
      8 O          61.0982   86.4497    9.2130 O.3     1  UNL1       -0.4524
      9 H          60.2535   91.3715    9.8518 H       1  UNL1        0.2917
     10 C          62.3048   86.1000   10.6760 C.3     1  UNL1        0.0372
     11 C          62.4949   85.6253   12.0862 C.3     1  UNL1        0.0035
     12 C          63.2021   84.3034   12.0389 C.3     1  UNL1        0.0001
     13 C          63.4492   83.9610   10.5995 C.3     1  UNL1        0.0001
     14 C          62.8946   85.0714    9.7572 C.3     1  UNL1        0.0035
     15 C          62.4151   87.8635   11.4481 C.3     1  UNL1        0.0452
     16 C          62.8497   89.2970   11.5269 C.3     1  UNL1        0.0300
     17 C          65.2268   91.3391   13.9619 C.ar    1  UNL1        0.0583
     18 C          64.6000   90.8135   12.7047 C.ar    1  UNL1        0.0105
     19 C          63.4766   89.8227   12.7842 C.ar    1  UNL1       -0.0197
     20 C          62.9800   89.3575   14.1211 C.ar    1  UNL1        0.0105
     21 C          63.6069   89.8832   15.3783 C.ar    1  UNL1        0.0583
     22 N          64.7302   90.8740   15.2988 N.ar    1  UNL1       -0.2540
     23 C          66.7214   93.1411   15.0884 C.3     1  UNL1        0.0067
     24 C          66.3502   92.3299   13.8825 C.3     1  UNL1        0.0458
     25 C          63.1102   89.4180   16.7152 C.3     1  UNL1        0.0458
     26 C          63.0379   87.9509   17.0192 C.3     1  UNL1        0.0067
     27 C          58.8275   88.9333    7.1091 C.3     1  UNL1        0.1032
     28 C          59.3222   89.8956    6.0703 C.ar    1  UNL1        0.1669
     29 N          58.5297   91.0081    5.4504 N.ar    1  UNL1       -0.1930
     30 C          59.4140   91.7144    4.4659 C.ar    1  UNL1        0.2536
     31 N          59.1730   92.8858    3.5605 N.ar    1  UNL1       -0.2143
     32 C          60.2710   93.3811    2.6666 C.ar    1  UNL1        0.0637
     33 C          60.0299   94.5526    1.7611 C.3     1  UNL1        0.0522
     34 C          61.6099   92.7052    2.6781 C.ar    1  UNL1        0.0296
     35 C          61.8510   91.5338    3.5835 C.ar    1  UNL1        0.0651
     36 C          63.1900   90.8578    3.5949 C.3     1  UNL1        0.0523
     37 N          60.7530   91.0384    4.4774 N.ar    1  UNL1       -0.1994
     38 N          60.6963   89.9143    5.4689 N.ar    1  UNL1       -0.1476
@<TRIPOS>BOND
     1    23    24    1
     2    24    17    1
     3    17    18   ar
     4    18    19   ar
     5    19    16    1
     6    16    15    1
     7     1    15    1
     8     1    10    1
     9    10    11    1
    10    11    12    1
    11    12    13    1
    12    13    14    1
    13     1     2    1
    14     2     3    1
    15     3     4    1
    16     3     5    2
    17     5    27    1
    18    27    28    1
    19    28    29   ar
    20    29    30   ar
    21    30    31   ar
    22    31    32   ar
    23    32    33    1
    24    32    34   ar
    25    34    35   ar
    26    35    36    1
    27    35    37   ar
    28    37    38   ar
    29     5     6    1
    30     6     7    2
    31     6     8    1
    32    19    20   ar
    33    20    21   ar
    34    21    25    1
    35    25    26    1
    36    21    22   ar
    37    22    17   ar
    38     8     1    1
    39    14    10    1
    40    38    28   ar
    41    37    30   ar
    42     4     9    1
@<TRIPOS>MOLECULE
*****
 38 42 0 0 0
SMALL
GASTEIGER

@<TRIPOS>ATOM
      1 C          62.2770   86.1914    9.8069 C.3     1  UNL1        0.1435
      2 C          62.8336   86.2557   11.1983 C.3     1  UNL1        0.1035
      3 C          62.8149   87.5510   11.9545 C.2     1  UNL1        0.1173
      4 O          63.3715   87.6153   13.3459 O.2     1  UNL1       -0.5097
      5 C          62.2395   88.7821   11.3193 C.2     1  UNL1        0.0905
      6 C          61.6829   88.7178    9.9279 C.2     1  UNL1        0.3400
      7 O          61.1075   89.9488    9.2927 O.2     1  UNL1       -0.2451
      8 O          61.7016   87.4224    9.1716 O.3     1  UNL1       -0.4524
      9 H          63.7309   86.8463   13.7427 H       1  UNL1        0.2917
     10 C          61.8713   85.6322    8.4755 C.3     1  UNL1        0.0372
     11 C          60.5127   85.7434    7.8495 C.3     1  UNL1        0.0035
     12 C          60.5547   85.0434    6.5235 C.3     1  UNL1        0.0001
     13 C          61.9392   84.4997    6.3299 C.3     1  UNL1        0.0001
     14 C          62.7529   84.8635    7.5364 C.3     1  UNL1        0.0035
     15 C          62.7115   84.7662    9.9797 C.3     1  UNL1        0.0452
     16 C          63.8107   84.4287   10.9430 C.3     1  UNL1        0.0300
     17 C          63.6152   84.1080   14.8938 C.ar    1  UNL1        0.0583
     18 C          63.9489   84.6340   13.5292 C.ar    1  UNL1        0.0105
     19 C          63.4769   83.9027   12.3075 C.ar    1  UNL1       -0.0197
     20 C          62.6712   82.6456   12.4504 C.ar    1  UNL1        0.0105
     21 C          62.3375   82.1196   13.8149 C.ar    1  UNL1        0.0583
     22 N          62.8094   82.8509   15.0366 N.ar    1  UNL1       -0.2540
     23 C          63.4118   86.1109   16.5360 C.3     1  UNL1        0.0067
     24 C          64.0871   84.8392   16.1155 C.3     1  UNL1        0.0458
     25 C          61.5317   80.8624   13.9577 C.3     1  UNL1        0.0458
     26 C          62.0162   79.5865   13.3353 C.3     1  UNL1        0.0067
     27 C          62.2207   90.0774   12.0755 C.3     1  UNL1        0.1032
     28 C          63.3096   91.0866   11.8616 C.ar    1  UNL1        0.1669
     29 N          63.7206   91.6743   10.5442 N.ar    1  UNL1       -0.1930
     30 C          64.8438   92.6362   10.7960 C.ar    1  UNL1        0.2536
     31 N          65.6453   93.5068    9.8743 N.ar    1  UNL1       -0.2143
     32 C          66.7299   94.3841   10.4257 C.ar    1  UNL1        0.0637
     33 C          67.5315   95.2548    9.5039 C.3     1  UNL1        0.0522
     34 C          67.0130   94.3908   11.8986 C.ar    1  UNL1        0.0296
     35 C          66.2115   93.5201   12.8204 C.ar    1  UNL1        0.0651
     36 C          66.4947   93.5268   14.2934 C.3     1  UNL1        0.0523
     37 N          65.1269   92.6428   12.2691 N.ar    1  UNL1       -0.1994
     38 N          64.1787   91.6851   12.9276 N.ar    1  UNL1       -0.1476
@<TRIPOS>BOND
     1    23    24    1
     2    24    17    1
     3    17    18   ar
     4    18    19   ar
     5    19    16    1
     6    16    15    1
     7     1    15    1
     8     1    10    1
     9    10    11    1
    10    11    12    1
    11    12    13    1
    12    13    14    1
    13     1     2    1
    14     2     3    1
    15     3     4    1
    16     3     5    2
    17     5    27    1
    18    27    28    1
    19    28    29   ar
    20    29    30   ar
    21    30    31   ar
    22    31    32   ar
    23    32    33    1
    24    32    34   ar
    25    34    35   ar
    26    35    36    1
    27    35    37   ar
    28    37    38   ar
    29     5     6    1
    30     6     7    2
    31     6     8    1
    32    19    20   ar
    33    20    21   ar
    34    21    25    1
    35    25    26    1
    36    21    22   ar
    37    22    17   ar
    38     8     1    1
    39    14    10    1
    40    38    28   ar
    41    37    30   ar
    42     4     9    1
@<TRIPOS>MOLECULE
*****
 38 42 0 0 0
SMALL
GASTEIGER

@<TRIPOS>ATOM
      1 C          62.2431   85.7510    9.0822 C.3     1  UNL1        0.1435
      2 C          62.7960   85.8272   10.4745 C.3     1  UNL1        0.1035
      3 C          62.6074   87.0723   11.2894 C.2     1  UNL1        0.1173
      4 O          63.1603   87.1484   12.6816 O.2     1  UNL1       -0.5097
      5 C          61.8657   88.2413   10.7120 C.2     1  UNL1        0.0905
      6 C          61.3128   88.1652    9.3197 C.2     1  UNL1        0.3400
      7 O          60.5711   89.3342    8.7423 O.2     1  UNL1       -0.2451
      8 O          61.5014   86.9200    8.5048 O.3     1  UNL1       -0.4524
      9 H          63.6236   86.4182   13.0423 H       1  UNL1        0.2917
     10 C          61.9072   85.2028    7.7270 C.3     1  UNL1        0.0372
     11 C          62.8765   84.5956    6.7565 C.3     1  UNL1        0.0035
     12 C          62.1114   84.1830    5.5341 C.3     1  UNL1        0.0001
     13 C          60.6692   84.5352    5.7490 C.3     1  UNL1        0.0001
     14 C          60.5430   85.1654    7.1043 C.3     1  UNL1        0.0035
     15 C          62.8681   84.3916    9.1889 C.3     1  UNL1        0.0452
     16 C          63.9830   84.1531   10.1636 C.3     1  UNL1        0.0300
     17 C          63.0541   80.9535   12.3198 C.ar    1  UNL1        0.0583
     18 C          63.2695   81.8533   11.1392 C.ar    1  UNL1        0.0105
     19 C          63.7676   83.2533   11.3442 C.ar    1  UNL1       -0.0197
     20 C          64.0502   83.7535   12.7299 C.ar    1  UNL1        0.0105
     21 C          63.8347   82.8537   13.9105 C.ar    1  UNL1        0.0583
     22 N          63.3367   81.4537   13.7055 N.ar    1  UNL1       -0.2540
     23 C          62.7753   78.8644   10.8008 C.3     1  UNL1        0.0067
     24 C          62.5560   79.5536   12.1149 C.3     1  UNL1        0.0458
     25 C          64.1174   83.3539   15.2961 C.3     1  UNL1        0.0458
     26 C          63.8938   84.7986   15.6320 C.3     1  UNL1        0.0067
     27 C          61.6770   89.4865   11.5268 C.3     1  UNL1        0.1032
     28 C          62.7754   90.5050   11.6055 C.ar    1  UNL1        0.1669
     29 N          63.2165   91.4134   10.4963 N.ar    1  UNL1       -0.1930
     30 C          64.3393   92.2637   11.0124 C.ar    1  UNL1        0.2536
     31 N          65.1641   93.3372   10.3665 N.ar    1  UNL1       -0.2143
     32 C          66.2417   94.0278   11.1487 C.ar    1  UNL1        0.0637
     33 C          67.0666   95.1013   10.5027 C.3     1  UNL1        0.0522
     34 C          66.4945   93.6450   12.5767 C.ar    1  UNL1        0.0296
     35 C          65.6696   92.5715   13.2227 C.ar    1  UNL1        0.0651
     36 C          65.9224   92.1887   14.6509 C.3     1  UNL1        0.0523
     37 N          64.5920   91.8809   12.4406 N.ar    1  UNL1       -0.1994
     38 N          63.6255   90.7939   12.8071 N.ar    1  UNL1       -0.1476
@<TRIPOS>BOND
     1    23    24    1
     2    24    17    1
     3    17    18   ar
     4    18    19   ar
     5    19    16    1
     6    16    15    1
     7     1    15    1
     8     1    10    1
     9    10    11    1
    10    11    12    1
    11    12    13    1
    12    13    14    1
    13     1     2    1
    14     2     3    1
    15     3     4    1
    16     3     5    2
    17     5    27    1
    18    27    28    1
    19    28    29   ar
    20    29    30   ar
    21    30    31   ar
    22    31    32   ar
    23    32    33    1
    24    32    34   ar
    25    34    35   ar
    26    35    36    1
    27    35    37   ar
    28    37    38   ar
    29     5     6    1
    30     6     7    2
    31     6     8    1
    32    19    20   ar
    33    20    21   ar
    34    21    25    1
    35    25    26    1
    36    21    22   ar
    37    22    17   ar
    38     8     1    1
    39    14    10    1
    40    38    28   ar
    41    37    30   ar
    42     4     9    1
@<TRIPOS>MOLECULE
*****
 38 42 0 0 0
SMALL
GASTEIGER

@<TRIPOS>ATOM
      1 C          63.8914   89.5380   14.4237 C.3     1  UNL1        0.1435
      2 C          63.8730   90.1724   13.0646 C.3     1  UNL1        0.1035
      3 C          64.6131   91.4550   12.8256 C.2     1  UNL1        0.1173
      4 O          64.5948   92.0895   11.4665 O.2     1  UNL1       -0.5097
      5 C          65.3716   92.1033   13.9456 C.2     1  UNL1        0.0905
      6 C          65.3899   91.4689   15.3047 C.2     1  UNL1        0.3400
      7 O          66.1484   92.1170   16.4248 O.2     1  UNL1       -0.2451
      8 O          64.6498   90.1862   15.5438 O.3     1  UNL1       -0.4524
      9 H          64.1210   91.6846   10.7668 H       1  UNL1        0.2917
     10 C          63.6127   88.5606   15.5269 C.3     1  UNL1        0.0372
     11 C          62.9642   88.8768   16.8420 C.3     1  UNL1        0.0035
     12 C          62.8843   87.6070   17.6365 C.3     1  UNL1        0.0001
     13 C          63.4834   86.5060   16.8125 C.3     1  UNL1        0.0001
     14 C          63.9336   87.0954   15.5087 C.3     1  UNL1        0.0035
     15 C          63.0361   88.5504   13.6868 C.3     1  UNL1        0.0452
     16 C          62.9236   88.6234   12.1928 C.3     1  UNL1        0.0300
     17 C          62.4554   84.8646   11.0086 C.ar    1  UNL1        0.0583
     18 C          62.9298   86.0576   11.7843 C.ar    1  UNL1        0.0105
     19 C          62.4493   87.4303   11.4172 C.ar    1  UNL1       -0.0197
     20 C          61.4944   87.6100   10.2744 C.ar    1  UNL1        0.0105
     21 C          61.0200   86.4170    9.4987 C.ar    1  UNL1        0.0583
     22 N          61.5005   85.0443    9.8658 N.ar    1  UNL1       -0.2540
     23 C          64.3492   83.0873   11.0773 C.3     1  UNL1        0.0067
     24 C          62.9359   83.4919   11.3757 C.3     1  UNL1        0.0458
     25 C          60.0651   86.5968    8.3559 C.3     1  UNL1        0.0458
     26 C          59.6122   87.9727    7.9665 C.3     1  UNL1        0.0067
     27 C          66.1117   93.3859   13.7066 C.3     1  UNL1        0.1032
     28 C          66.4087   93.8305   12.3052 C.ar    1  UNL1        0.1669
     29 N          65.8528   95.0495   11.6304 N.ar    1  UNL1       -0.1930
     30 C          66.4143   95.1065   10.2407 C.ar    1  UNL1        0.2536
     31 N          66.2200   96.0834    9.1191 N.ar    1  UNL1       -0.2143
     32 C          66.9287   95.8765    7.8132 C.ar    1  UNL1        0.0637
     33 C          66.7344   96.8535    6.6916 C.3     1  UNL1        0.0522
     34 C          67.8314   94.6929    7.6290 C.ar    1  UNL1        0.0296
     35 C          68.0256   93.7161    8.7506 C.ar    1  UNL1        0.0651
     36 C          68.9284   92.5324    8.5664 C.3     1  UNL1        0.0523
     37 N          67.3170   93.9228   10.0564 N.ar    1  UNL1       -0.1994
     38 N          67.3136   93.1342   11.3324 N.ar    1  UNL1       -0.1476
@<TRIPOS>BOND
     1    23    24    1
     2    24    17    1
     3    17    18   ar
     4    18    19   ar
     5    19    16    1
     6    16    15    1
     7     1    15    1
     8     1    10    1
     9    10    11    1
    10    11    12    1
    11    12    13    1
    12    13    14    1
    13     1     2    1
    14     2     3    1
    15     3     4    1
    16     3     5    2
    17     5    27    1
    18    27    28    1
    19    28    29   ar
    20    29    30   ar
    21    30    31   ar
    22    31    32   ar
    23    32    33    1
    24    32    34   ar
    25    34    35   ar
    26    35    36    1
    27    35    37   ar
    28    37    38   ar
    29     5     6    1
    30     6     7    2
    31     6     8    1
    32    19    20   ar
    33    20    21   ar
    34    21    25    1
    35    25    26    1
    36    21    22   ar
    37    22    17   ar
    38     8     1    1
    39    14    10    1
    40    38    28   ar
    41    37    30   ar
    42     4     9    1
@<TRIPOS>MOLECULE
*****
 38 42 0 0 0
SMALL
GASTEIGER

@<TRIPOS>ATOM
      1 C          62.0691   87.0584   10.6935 C.3     1  UNL1        0.1435
      2 C          63.0120   86.8919   11.8481 C.3     1  UNL1        0.1035
      3 C          63.1912   88.0056   12.8368 C.2     1  UNL1        0.1173
      4 O          64.1341   87.8391   13.9914 O.2     1  UNL1       -0.5097
      5 C          62.4275   89.2859   12.6708 C.2     1  UNL1        0.0905
      6 C          61.4846   89.4524   11.5162 C.2     1  UNL1        0.3400
      7 O          60.7208   90.7327   11.3501 O.2     1  UNL1       -0.2451
      8 O          61.3054   88.3387   10.5274 O.3     1  UNL1       -0.4524
      9 H          64.6112   87.0393   14.0951 H       1  UNL1        0.2917
     10 C          61.2985   86.7421    9.4460 C.3     1  UNL1        0.0372
     11 C          59.9564   87.2990    9.0738 C.3     1  UNL1        0.0035
     12 C          59.5631   86.7145    7.7495 C.3     1  UNL1        0.0001
     13 C          60.6623   85.7964    7.3032 C.3     1  UNL1        0.0001
     14 C          61.7348   85.8135    8.3518 C.3     1  UNL1        0.0035
     15 C          62.5652   85.6682   10.4262 C.3     1  UNL1        0.0452
     16 C          63.2762   84.9054   11.5044 C.3     1  UNL1        0.0300
     17 C          63.1404   80.9996   10.8140 C.ar    1  UNL1        0.0583
     18 C          63.4107   82.4633   10.6279 C.ar    1  UNL1        0.0105
     19 C          63.0060   83.4417   11.6905 C.ar    1  UNL1       -0.0197
     20 C          62.3311   82.9564   12.9391 C.ar    1  UNL1        0.0105
     21 C          62.0609   81.4927   13.1252 C.ar    1  UNL1        0.0583
     22 N          62.4655   80.5144   12.0626 N.ar    1  UNL1       -0.2540
     23 C          62.7984   78.7293    9.5981 C.3     1  UNL1        0.0067
     24 C          63.5451   80.0212    9.7515 C.3     1  UNL1        0.0458
     25 C          61.3859   81.0075   14.3738 C.3     1  UNL1        0.0458
     26 C          59.9919   80.4578   14.3076 C.3     1  UNL1        0.0067
     27 C          62.6066   90.3997   13.6594 C.3     1  UNL1        0.1032
     28 C          63.9709   90.9730   13.9044 C.ar    1  UNL1        0.1669
     29 N          64.4540   91.5821   15.1871 N.ar    1  UNL1       -0.1930
     30 C          65.8734   92.0233   14.9850 C.ar    1  UNL1        0.2536
     31 N          66.8579   92.6880   15.9010 N.ar    1  UNL1       -0.2143
     32 C          68.2365   93.0162   15.4091 C.ar    1  UNL1        0.0637
     33 C          69.2210   93.6809   16.3251 C.3     1  UNL1        0.0522
     34 C          68.6305   92.6797   14.0016 C.ar    1  UNL1        0.0296
     35 C          67.6460   92.0151   13.0856 C.ar    1  UNL1        0.0651
     36 C          68.0401   91.6786   11.6780 C.3     1  UNL1        0.0523
     37 N          66.2674   91.6869   13.5774 N.ar    1  UNL1       -0.1994
     38 N          65.0916   91.0377   12.9095 N.ar    1  UNL1       -0.1476
@<TRIPOS>BOND
     1    23    24    1
     2    24    17    1
     3    17    18   ar
     4    18    19   ar
     5    19    16    1
     6    16    15    1
     7     1    15    1
     8     1    10    1
     9    10    11    1
    10    11    12    1
    11    12    13    1
    12    13    14    1
    13     1     2    1
    14     2     3    1
    15     3     4    1
    16     3     5    2
    17     5    27    1
    18    27    28    1
    19    28    29   ar
    20    29    30   ar
    21    30    31   ar
    22    31    32   ar
    23    32    33    1
    24    32    34   ar
    25    34    35   ar
    26    35    36    1
    27    35    37   ar
    28    37    38   ar
    29     5     6    1
    30     6     7    2
    31     6     8    1
    32    19    20   ar
    33    20    21   ar
    34    21    25    1
    35    25    26    1
    36    21    22   ar
    37    22    17   ar
    38     8     1    1
    39    14    10    1
    40    38    28   ar
    41    37    30   ar
    42     4     9    1
@<TRIPOS>MOLECULE
*****
 38 42 0 0 0
SMALL
GASTEIGER

@<TRIPOS>ATOM
      1 C          61.9773   87.7660   10.6083 C.3     1  UNL1        0.1435
      2 C          61.6087   86.7555    9.5627 C.3     1  UNL1        0.1035
      3 C          60.6390   87.1186    8.4776 C.2     1  UNL1        0.1173
      4 O          60.2704   86.1082    7.4320 O.2     1  UNL1       -0.5097
      5 C          60.0377   88.4923    8.4378 C.2     1  UNL1        0.0905
      6 C          60.4062   89.5028    9.4834 C.2     1  UNL1        0.3400
      7 O          59.8050   90.8765    9.4437 O.2     1  UNL1       -0.2451
      8 O          61.3761   89.1397   10.5686 O.3     1  UNL1       -0.4524
      9 H          60.6460   85.2501    7.4568 H       1  UNL1        0.2917
     10 C          62.6338   88.3726   11.8128 C.3     1  UNL1        0.0372
     11 C          63.5353   87.6609   12.7777 C.3     1  UNL1        0.0035
     12 C          63.9628   88.6458   13.8253 C.3     1  UNL1        0.0001
     13 C          63.3255   89.9661   13.5078 C.3     1  UNL1        0.0001
     14 C          62.5042   89.7972   12.2640 C.3     1  UNL1        0.0035
     15 C          62.8065   86.6030   11.0663 C.3     1  UNL1        0.0452
     16 C          62.2513   85.2114   10.9945 C.3     1  UNL1        0.0300
     17 C          62.6654   81.8603   13.0798 C.ar    1  UNL1        0.0583
     18 C          62.4964   82.7961   11.9197 C.ar    1  UNL1        0.0105
     19 C          62.4203   84.2756   12.1545 C.ar    1  UNL1       -0.0197
     20 C          62.5131   84.8194   13.5494 C.ar    1  UNL1        0.0105
     21 C          62.6821   83.8837   14.7095 C.ar    1  UNL1        0.0583
     22 N          62.7583   82.4041   14.4747 N.ar    1  UNL1       -0.2540
     23 C          62.7875   79.8450   11.4447 C.3     1  UNL1        0.0067
     24 C          62.7416   80.3808   12.8451 C.3     1  UNL1        0.0458
     25 C          62.7749   84.4275   16.1044 C.3     1  UNL1        0.0458
     26 C          63.5083   85.7104   16.3618 C.3     1  UNL1        0.0067
     27 C          59.0679   88.8555    7.3527 C.3     1  UNL1        0.1032
     28 C          59.4781   89.8068    6.2678 C.ar    1  UNL1        0.1669
     29 N          58.6145   90.8678    5.6527 N.ar    1  UNL1       -0.1930
     30 C          59.4265   91.5808    4.6124 C.ar    1  UNL1        0.2536
     31 N          59.0990   92.7148    3.6868 N.ar    1  UNL1       -0.2143
     32 C          60.1370   93.2285    2.7334 C.ar    1  UNL1        0.0637
     33 C          59.8094   94.3625    1.8077 C.3     1  UNL1        0.0522
     34 C          61.5023   92.6081    2.7057 C.ar    1  UNL1        0.0296
     35 C          61.8298   91.4741    3.6313 C.ar    1  UNL1        0.0651
     36 C          63.1953   90.8538    3.6035 C.3     1  UNL1        0.0523
     37 N          60.7919   90.9605    4.5846 N.ar    1  UNL1       -0.1994
     38 N          60.8238   89.8641    5.6078 N.ar    1  UNL1       -0.1476
@<TRIPOS>BOND
     1    23    24    1
     2    24    17    1
     3    17    18   ar
     4    18    19   ar
     5    19    16    1
     6    16    15    1
     7     1    15    1
     8     1    10    1
     9    10    11    1
    10    11    12    1
    11    12    13    1
    12    13    14    1
    13     1     2    1
    14     2     3    1
    15     3     4    1
    16     3     5    2
    17     5    27    1
    18    27    28    1
    19    28    29   ar
    20    29    30   ar
    21    30    31   ar
    22    31    32   ar
    23    32    33    1
    24    32    34   ar
    25    34    35   ar
    26    35    36    1
    27    35    37   ar
    28    37    38   ar
    29     5     6    1
    30     6     7    2
    31     6     8    1
    32    19    20   ar
    33    20    21   ar
    34    21    25    1
    35    25    26    1
    36    21    22   ar
    37    22    17   ar
    38     8     1    1
    39    14    10    1
    40    38    28   ar
    41    37    30   ar
    42     4     9    1
