@<TRIPOS>MOLECULE
*****
 33 36 0 0 0
SMALL
GASTEIGER

@<TRIPOS>ATOM
      1 C          62.9049   87.9229   12.2389 C.ar    1  UNL1        0.1391
      2 C          63.1528   86.4772   12.5527 C.ar    1  UNL1        0.0733
      3 C          62.5242   85.4081   11.7091 C.ar    1  UNL1        0.1679
      4 N          61.6476   85.7847   10.5516 N.ar    1  UNL1       -0.2047
      5 C          61.3997   87.2304   10.2379 C.ar    1  UNL1        0.2001
      6 N          62.0283   88.2995   11.0815 N.ar    1  UNL1       -0.2088
      7 N          62.7721   83.9624   12.0229 N.ar    1  UNL1       -0.2164
      8 N          62.2967   83.2309   13.2430 N.ar    1  UNL1       -0.1684
      9 C          62.7698   81.8108   13.1459 C.ar    1  UNL1        0.0805
     10 C          62.5191   80.7271   14.1523 C.3     1  UNL1        0.0540
     11 C          63.5376   81.6646   11.8656 C.ar    1  UNL1        0.0312
     12 C          63.5390   82.9944   11.1716 C.ar    1  UNL1        0.0637
     13 C          64.1926   83.3020    9.8570 C.3     1  UNL1        0.0522
     14 C          60.5230   87.6070    9.0803 C.ar    1  UNL1        0.1805
     15 C          59.5148   86.7195    8.4126 C.ar    1  UNL1        0.0434
     16 C          58.8693   87.5011    7.3070 C.ar    1  UNL1        0.0362
     17 C          59.4787   88.8718    7.2914 C.ar    1  UNL1        0.1234
     18 C          59.1276   89.9820    6.3458 C.3     1  UNL1        0.0725
     19 O          60.5007   88.9372    8.3874 O.2     1  UNL1       -0.4546
     20 C          63.7993   90.3483   12.4995 C.2     1  UNL1        0.2717
     21 O          63.4363   90.6354   11.0726 O.2     1  UNL1       -0.2707
     22 N          63.5336   88.9920   13.0827 N.am    1  UNL1       -0.2662
     23 H          63.7718   88.8036   14.0191 H       1  UNL1        0.1564
     24 C          64.4280   91.4174   13.3432 C.3     1  UNL1        0.2897
     25 O          65.8939   91.7084   13.2154 O.3     1  UNL1       -0.4655
     26 C          66.1250   96.4655   11.1378 C.3     1  UNL1        0.0522
     27 C          66.4994   95.0134   11.1034 C.ar    1  UNL1        0.0620
     28 C          66.0095   94.0870   12.1765 C.ar    1  UNL1        0.0516
     29 C          66.3838   92.6349   12.1422 C.ar    1  UNL1        0.1416
     30 C          67.2481   92.1092   11.0347 C.ar    1  UNL1        0.0516
     31 C          67.7380   93.0356    9.9615 C.ar    1  UNL1        0.0620
     32 C          68.6023   92.5099    8.8539 C.3     1  UNL1        0.0522
     33 N          67.3636   94.4877    9.9959 N.ar    1  UNL1       -0.2538
@<TRIPOS>BOND
     1    26    27    1
     2    27    28   ar
     3    28    29   ar
     4    29    25    1
     5    25    24    1
     6    24    20    1
     7    20    21    2
     8    20    22   am
     9    22     1    1
    10     1     2   ar
    11     2     3   ar
    12     3     7    1
    13     7     8   ar
    14     8     9   ar
    15     9    10    1
    16     9    11   ar
    17    11    12   ar
    18    12    13    1
    19     3     4   ar
    20     4     5   ar
    21     5    14    1
    22    14    15   ar
    23    15    16   ar
    24    16    17   ar
    25    17    18    1
    26    17    19   ar
    27     5     6   ar
    28    29    30   ar
    29    30    31   ar
    30    31    32    1
    31    31    33   ar
    32    33    27   ar
    33     6     1   ar
    34    12     7   ar
    35    19    14   ar
    36    22    23    1
@<TRIPOS>MOLECULE
*****
 33 36 0 0 0
SMALL
GASTEIGER

@<TRIPOS>ATOM
      1 C          63.9735   88.6869   13.7345 C.ar    1  UNL1        0.1391
      2 C          64.7133   89.9918   13.7251 C.ar    1  UNL1        0.0733
      3 C          64.4561   90.9918   12.6371 C.ar    1  UNL1        0.1679
      4 N          63.4592   90.6870   11.5586 N.ar    1  UNL1       -0.2047
      5 C          62.7195   89.3821   11.5680 C.ar    1  UNL1        0.2001
      6 N          62.9767   88.3820   12.6560 N.ar    1  UNL1       -0.2088
      7 N          65.1958   92.2967   12.6276 N.ar    1  UNL1       -0.2164
      8 N          65.3243   93.2289   11.4596 N.ar    1  UNL1       -0.1684
      9 C          66.1448   94.4069   11.8946 C.ar    1  UNL1        0.0805
     10 C          66.5207   95.5825   11.0423 C.3     1  UNL1        0.0540
     11 C          66.5234   94.2026   13.3316 C.ar    1  UNL1        0.0312
     12 C          65.9369   92.8985   13.7846 C.ar    1  UNL1        0.0637
     13 C          66.0684   92.3011   15.1542 C.3     1  UNL1        0.0522
     14 C          61.7226   89.0773   10.4894 C.ar    1  UNL1        0.1805
     15 C          60.9101   90.0837    9.7298 C.ar    1  UNL1        0.0434
     16 C          60.0485   89.3410    8.7520 C.ar    1  UNL1        0.0362
     17 C          60.3284   87.8755    8.9074 C.ar    1  UNL1        0.1234
     18 C          59.6864   86.7676    8.1262 C.3     1  UNL1        0.0725
     19 O          61.3630   87.7126    9.9812 O.2     1  UNL1       -0.4546
     20 C          63.8734   86.2448   14.6156 C.2     1  UNL1        0.2717
     21 O          63.2588   85.8028   13.3206 O.2     1  UNL1       -0.2707
     22 N          64.2308   87.6868   14.8226 N.am    1  UNL1       -0.2662
     23 H          64.6341   87.9769   15.6725 H       1  UNL1        0.1564
     24 C          64.1306   85.2447   15.7036 C.3     1  UNL1        0.2897
     25 O          64.5862   83.8586   15.3558 O.3     1  UNL1       -0.4655
     26 C          60.6125   80.7576   14.0930 C.3     1  UNL1        0.0522
     27 C          61.8508   81.5075   13.7003 C.ar    1  UNL1        0.0620
     28 C          62.5993   82.3081   14.7243 C.ar    1  UNL1        0.0516
     29 C          63.8377   83.0580   14.3316 C.ar    1  UNL1        0.1416
     30 C          64.3275   83.0072   12.9148 C.ar    1  UNL1        0.0516
     31 C          63.5790   82.2066   11.8907 C.ar    1  UNL1        0.0620
     32 C          64.0688   82.1559   10.4738 C.3     1  UNL1        0.0522
     33 N          62.3407   81.4568   12.2834 N.ar    1  UNL1       -0.2538
@<TRIPOS>BOND
     1    26    27    1
     2    27    28   ar
     3    28    29   ar
     4    29    25    1
     5    25    24    1
     6    24    20    1
     7    20    21    2
     8    20    22   am
     9    22     1    1
    10     1     2   ar
    11     2     3   ar
    12     3     7    1
    13     7     8   ar
    14     8     9   ar
    15     9    10    1
    16     9    11   ar
    17    11    12   ar
    18    12    13    1
    19     3     4   ar
    20     4     5   ar
    21     5    14    1
    22    14    15   ar
    23    15    16   ar
    24    16    17   ar
    25    17    18    1
    26    17    19   ar
    27     5     6   ar
    28    29    30   ar
    29    30    31   ar
    30    31    32    1
    31    31    33   ar
    32    33    27   ar
    33     6     1   ar
    34    12     7   ar
    35    19    14   ar
    36    22    23    1
@<TRIPOS>MOLECULE
*****
 33 36 0 0 0
SMALL
GASTEIGER

@<TRIPOS>ATOM
      1 C          63.4641   87.4439   13.3973 C.ar    1  UNL1        0.1391
      2 C          63.5399   85.9459   13.4126 C.ar    1  UNL1        0.0733
      3 C          62.8709   85.1500   12.3314 C.ar    1  UNL1        0.1679
      4 N          62.1262   85.8521   11.2349 N.ar    1  UNL1       -0.2047
      5 C          62.0503   87.3502   11.2197 C.ar    1  UNL1        0.2001
      6 N          62.7193   88.1460   12.3009 N.ar    1  UNL1       -0.2088
      7 N          62.9468   83.6520   12.3466 N.ar    1  UNL1       -0.2164
      8 N          62.4173   82.7533   13.4246 N.ar    1  UNL1       -0.1684
      9 C          62.7087   81.3355   13.0308 C.ar    1  UNL1        0.0805
     10 C          62.3530   80.1104   13.8198 C.3     1  UNL1        0.0540
     11 C          63.4182   81.3580   11.7094 C.ar    1  UNL1        0.0312
     12 C          63.5653   82.7896   11.2866 C.ar    1  UNL1        0.0637
     13 C          64.2166   83.2739   10.0251 C.3     1  UNL1        0.0522
     14 C          61.3055   88.0523   10.1231 C.ar    1  UNL1        0.1805
     15 C          61.2987   89.5305    9.8682 C.ar    1  UNL1        0.0434
     16 C          60.4258   89.7913    8.6766 C.ar    1  UNL1        0.0362
     17 C          59.8930   88.4743    8.1951 C.ar    1  UNL1        0.1234
     18 C          58.9774   88.2682    7.0250 C.3     1  UNL1        0.0725
     19 O          60.4368   87.3996    9.0891 O.2     1  UNL1       -0.4546
     20 C          63.4192   89.3997   15.1070 C.2     1  UNL1        0.2717
     21 O          62.0363   89.7638   14.6540 O.2     1  UNL1       -0.2707
     22 N          64.1331   88.2397   14.4786 N.am    1  UNL1       -0.2662
     23 H          65.0407   88.0007   14.7759 H       1  UNL1        0.1564
     24 C          64.0881   90.1956   16.1882 C.3     1  UNL1        0.2897
     25 O          64.3317   91.6633   15.9976 O.3     1  UNL1       -0.4655
     26 C          69.0863   93.7589   16.0469 C.3     1  UNL1        0.0522
     27 C          67.9298   93.1795   15.2873 C.ar    1  UNL1        0.0620
     28 C          66.7090   92.7111   16.0222 C.ar    1  UNL1        0.0516
     29 C          65.5525   92.1318   15.2626 C.ar    1  UNL1        0.1416
     30 C          65.6169   92.0208   13.7682 C.ar    1  UNL1        0.0516
     31 C          66.8377   92.4893   13.0333 C.ar    1  UNL1        0.0620
     32 C          66.9021   92.3783   11.5387 C.3     1  UNL1        0.0522
     33 N          67.9942   93.0686   13.7928 N.ar    1  UNL1       -0.2538
@<TRIPOS>BOND
     1    26    27    1
     2    27    28   ar
     3    28    29   ar
     4    29    25    1
     5    25    24    1
     6    24    20    1
     7    20    21    2
     8    20    22   am
     9    22     1    1
    10     1     2   ar
    11     2     3   ar
    12     3     7    1
    13     7     8   ar
    14     8     9   ar
    15     9    10    1
    16     9    11   ar
    17    11    12   ar
    18    12    13    1
    19     3     4   ar
    20     4     5   ar
    21     5    14    1
    22    14    15   ar
    23    15    16   ar
    24    16    17   ar
    25    17    18    1
    26    17    19   ar
    27     5     6   ar
    28    29    30   ar
    29    30    31   ar
    30    31    32    1
    31    31    33   ar
    32    33    27   ar
    33     6     1   ar
    34    12     7   ar
    35    19    14   ar
    36    22    23    1
@<TRIPOS>MOLECULE
*****
 33 36 0 0 0
SMALL
GASTEIGER

@<TRIPOS>ATOM
      1 C          63.4625   87.4501   13.3921 C.ar    1  UNL1        0.1391
      2 C          63.5333   85.9518   13.4020 C.ar    1  UNL1        0.0733
      3 C          62.8619   85.1621   12.3177 C.ar    1  UNL1        0.1679
      4 N          62.1198   85.8707   11.2236 N.ar    1  UNL1       -0.2047
      5 C          62.0490   87.3690   11.2138 C.ar    1  UNL1        0.2001
      6 N          62.7203   88.1587   12.2980 N.ar    1  UNL1       -0.2088
      7 N          62.9327   83.6638   12.3275 N.ar    1  UNL1       -0.2164
      8 N          62.4106   82.7635   13.4077 N.ar    1  UNL1       -0.1684
      9 C          62.6932   81.3460   13.0067 C.ar    1  UNL1        0.0805
     10 C          62.3409   80.1197   13.7953 C.3     1  UNL1        0.0540
     11 C          63.3901   81.3703   11.6786 C.ar    1  UNL1        0.0312
     12 C          63.5381   82.8027   11.2589 C.ar    1  UNL1        0.0637
     13 C          64.1791   83.2887    9.9928 C.3     1  UNL1        0.0522
     14 C          61.3069   88.0776   10.1196 C.ar    1  UNL1        0.1805
     15 C          61.3151   89.5554    9.8623 C.ar    1  UNL1        0.0434
     16 C          60.4396   89.8240    8.6744 C.ar    1  UNL1        0.0362
     17 C          59.8901   88.5122    8.1975 C.ar    1  UNL1        0.1234
     18 C          58.9668   88.3144    7.0320 C.3     1  UNL1        0.0725
     19 O          60.4261   87.4329    9.0907 O.2     1  UNL1       -0.4546
     20 C          63.4215   89.3964   15.1127 C.2     1  UNL1        0.2717
     21 O          62.0377   89.7633   14.6646 O.2     1  UNL1       -0.2707
     22 N          64.1338   88.2398   14.4765 N.am    1  UNL1       -0.2662
     23 H          65.0420   87.9990   14.7706 H       1  UNL1        0.1564
     24 C          64.0928   90.1861   16.1970 C.3     1  UNL1        0.2897
     25 O          64.3326   91.6556   16.0158 O.3     1  UNL1       -0.4655
     26 C          66.8767   92.3988   11.5464 C.3     1  UNL1        0.0522
     27 C          66.8199   92.5032   13.0416 C.ar    1  UNL1        0.0620
     28 C          65.6047   92.0272   13.7811 C.ar    1  UNL1        0.0516
     29 C          65.5479   92.1316   15.2764 C.ar    1  UNL1        0.1416
     30 C          66.7062   92.7120   16.0322 C.ar    1  UNL1        0.0516
     31 C          67.9214   93.1879   15.2928 C.ar    1  UNL1        0.0620
     32 C          69.0798   93.7683   16.0486 C.3     1  UNL1        0.0522
     33 N          67.9782   93.0835   13.7975 N.ar    1  UNL1       -0.2538
@<TRIPOS>BOND
     1    26    27    1
     2    27    28   ar
     3    28    29   ar
     4    29    25    1
     5    25    24    1
     6    24    20    1
     7    20    21    2
     8    20    22   am
     9    22     1    1
    10     1     2   ar
    11     2     3   ar
    12     3     7    1
    13     7     8   ar
    14     8     9   ar
    15     9    10    1
    16     9    11   ar
    17    11    12   ar
    18    12    13    1
    19     3     4   ar
    20     4     5   ar
    21     5    14    1
    22    14    15   ar
    23    15    16   ar
    24    16    17   ar
    25    17    18    1
    26    17    19   ar
    27     5     6   ar
    28    29    30   ar
    29    30    31   ar
    30    31    32    1
    31    31    33   ar
    32    33    27   ar
    33     6     1   ar
    34    12     7   ar
    35    19    14   ar
    36    22    23    1
@<TRIPOS>MOLECULE
*****
 33 36 0 0 0
SMALL
GASTEIGER

@<TRIPOS>ATOM
      1 C          63.8537   88.8268   13.4154 C.ar    1  UNL1        0.1391
      2 C          64.5853   90.1328   13.3204 C.ar    1  UNL1        0.0733
      3 C          64.3148   91.0625   12.1748 C.ar    1  UNL1        0.1679
      4 N          63.3126   90.6861   11.1241 N.ar    1  UNL1       -0.2047
      5 C          62.5810   89.3801   11.2191 C.ar    1  UNL1        0.2001
      6 N          62.8515   88.4504   12.3647 N.ar    1  UNL1       -0.2088
      7 N          65.0464   92.3685   12.0798 N.ar    1  UNL1       -0.2164
      8 N          65.0960   93.2660   10.8790 N.ar    1  UNL1       -0.1684
      9 C          65.9372   94.4585   11.2260 C.ar    1  UNL1        0.0805
     10 C          66.2526   95.6095   10.3172 C.3     1  UNL1        0.0540
     11 C          66.4074   94.2981   12.6413 C.ar    1  UNL1        0.0312
     12 C          65.8569   93.0063   13.1690 C.ar    1  UNL1        0.0637
     13 C          66.0780   92.4502   14.5444 C.3     1  UNL1        0.0522
     14 C          61.5787   89.0037   10.1684 C.ar    1  UNL1        0.1805
     15 C          60.6622   89.9463    9.4463 C.ar    1  UNL1        0.0434
     16 C          59.8341   89.1439    8.4869 C.ar    1  UNL1        0.0362
     17 C          60.2389   87.7053    8.6161 C.ar    1  UNL1        0.1234
     18 C          59.6661   86.5553    7.8419 C.3     1  UNL1        0.0725
     19 O          61.3172   87.6187    9.6552 O.2     1  UNL1       -0.4546
     20 C          63.8378   86.4314   14.4214 C.2     1  UNL1        0.2717
     21 O          63.2807   85.8953   13.1359 O.2     1  UNL1       -0.2707
     22 N          64.1243   87.8972   14.5611 N.am    1  UNL1       -0.2662
     23 H          64.4899   88.2490   15.4048 H       1  UNL1        0.1564
     24 C          64.1084   85.5018   15.5670 C.3     1  UNL1        0.2897
     25 O          64.5873   84.1051   15.3025 O.3     1  UNL1       -0.4655
     26 C          64.1796   82.2147   10.4797 C.3     1  UNL1        0.0522
     27 C          63.6721   82.3003   11.8886 C.ar    1  UNL1        0.0620
     28 C          64.3834   83.1599   12.8911 C.ar    1  UNL1        0.0516
     29 C          63.8759   83.2455   14.3000 C.ar    1  UNL1        0.1416
     30 C          62.6570   82.4716   14.7064 C.ar    1  UNL1        0.0516
     31 C          61.9456   81.6120   13.7039 C.ar    1  UNL1        0.0620
     32 C          60.7266   80.8380   14.1103 C.3     1  UNL1        0.0522
     33 N          62.4532   81.5264   12.2950 N.ar    1  UNL1       -0.2538
@<TRIPOS>BOND
     1    26    27    1
     2    27    28   ar
     3    28    29   ar
     4    29    25    1
     5    25    24    1
     6    24    20    1
     7    20    21    2
     8    20    22   am
     9    22     1    1
    10     1     2   ar
    11     2     3   ar
    12     3     7    1
    13     7     8   ar
    14     8     9   ar
    15     9    10    1
    16     9    11   ar
    17    11    12   ar
    18    12    13    1
    19     3     4   ar
    20     4     5   ar
    21     5    14    1
    22    14    15   ar
    23    15    16   ar
    24    16    17   ar
    25    17    18    1
    26    17    19   ar
    27     5     6   ar
    28    29    30   ar
    29    30    31   ar
    30    31    32    1
    31    31    33   ar
    32    33    27   ar
    33     6     1   ar
    34    12     7   ar
    35    19    14   ar
    36    22    23    1
@<TRIPOS>MOLECULE
*****
 33 36 0 0 0
SMALL
GASTEIGER

@<TRIPOS>ATOM
      1 C          63.7142   86.4355   13.4699 C.ar    1  UNL1        0.1391
      2 C          64.2751   87.6514   14.1458 C.ar    1  UNL1        0.0733
      3 C          63.9266   89.0194   13.6387 C.ar    1  UNL1        0.1679
      4 N          63.0171   89.1714   12.4556 N.ar    1  UNL1       -0.2047
      5 C          62.4562   87.9555   11.7797 C.ar    1  UNL1        0.2001
      6 N          62.8047   86.5875   12.2868 N.ar    1  UNL1       -0.2088
      7 N          64.4875   90.2353   14.3146 N.ar    1  UNL1       -0.2164
      8 N          65.4797   91.1931   13.7248 N.ar    1  UNL1       -0.1684
      9 C          65.7601   92.2567   14.7447 C.ar    1  UNL1        0.0805
     10 C          66.6953   93.4170   14.5743 C.3     1  UNL1        0.0540
     11 C          64.9411   91.9562   15.9650 C.ar    1  UNL1        0.0312
     12 C          64.1546   90.7069   15.6991 C.ar    1  UNL1        0.0637
     13 C          63.2024   90.0453   16.6508 C.3     1  UNL1        0.0522
     14 C          61.5466   88.1075   10.5965 C.ar    1  UNL1        0.1805
     15 C          61.1969   89.3962    9.9132 C.ar    1  UNL1        0.0434
     16 C          60.2613   89.0828    8.7834 C.ar    1  UNL1        0.0362
     17 C          60.0328   87.6004    8.7685 C.ar    1  UNL1        0.1234
     18 C          59.1627   86.8520    7.8026 C.3     1  UNL1        0.0725
     19 O          60.8272   86.9976    9.8891 O.2     1  UNL1       -0.4546
     20 C          63.0495   84.2716   14.7448 C.2     1  UNL1        0.2717
     21 O          61.6875   84.8436   15.0055 O.2     1  UNL1       -0.2707
     22 N          64.0628   85.0675   13.9770 N.am    1  UNL1       -0.2662
     23 H          64.9567   84.6921   13.8060 H       1  UNL1        0.1564
     24 C          63.3980   82.9037   15.2520 C.3     1  UNL1        0.2897
     25 O          62.7967   81.6894   14.6085 O.3     1  UNL1       -0.4655
     26 C          62.6346   78.5032   10.5071 C.3     1  UNL1        0.0522
     27 C          62.8907   79.8629   11.0865 C.ar    1  UNL1        0.0620
     28 C          62.7157   80.0963   12.5578 C.ar    1  UNL1        0.0516
     29 C          62.9717   81.4560   13.1371 C.ar    1  UNL1        0.1416
     30 C          63.4028   82.5823   12.2451 C.ar    1  UNL1        0.0516
     31 C          63.5778   82.3488   10.7738 C.ar    1  UNL1        0.0620
     32 C          64.0089   83.4751    9.8818 C.3     1  UNL1        0.0522
     33 N          63.3218   80.9891   10.1945 N.ar    1  UNL1       -0.2538
@<TRIPOS>BOND
     1    26    27    1
     2    27    28   ar
     3    28    29   ar
     4    29    25    1
     5    25    24    1
     6    24    20    1
     7    20    21    2
     8    20    22   am
     9    22     1    1
    10     1     2   ar
    11     2     3   ar
    12     3     7    1
    13     7     8   ar
    14     8     9   ar
    15     9    10    1
    16     9    11   ar
    17    11    12   ar
    18    12    13    1
    19     3     4   ar
    20     4     5   ar
    21     5    14    1
    22    14    15   ar
    23    15    16   ar
    24    16    17   ar
    25    17    18    1
    26    17    19   ar
    27     5     6   ar
    28    29    30   ar
    29    30    31   ar
    30    31    32    1
    31    31    33   ar
    32    33    27   ar
    33     6     1   ar
    34    12     7   ar
    35    19    14   ar
    36    22    23    1
@<TRIPOS>MOLECULE
*****
 33 36 0 0 0
SMALL
GASTEIGER

@<TRIPOS>ATOM
      1 C          62.8939   90.3832   10.5054 C.ar    1  UNL1        0.1391
      2 C          63.8495   91.4514   10.0629 C.ar    1  UNL1        0.0733
      3 C          64.7220   92.1410   11.0695 C.ar    1  UNL1        0.1679
      4 N          64.6389   91.7624   12.5185 N.ar    1  UNL1       -0.2047
      5 C          63.6834   90.6942   12.9610 C.ar    1  UNL1        0.2001
      6 N          62.8109   90.0046   11.9545 N.ar    1  UNL1       -0.2088
      7 N          65.6776   93.2092   10.6270 N.ar    1  UNL1       -0.2164
      8 N          65.4009   94.6832   10.5989 N.ar    1  UNL1       -0.1684
      9 C          66.6299   95.3760   10.0894 C.ar    1  UNL1        0.0805
     10 C          66.7938   96.8549    9.9000 C.3     1  UNL1        0.0540
     11 C          67.6662   94.3301    9.8026 C.ar    1  UNL1        0.0312
     12 C          67.0776   92.9910   10.1348 C.ar    1  UNL1        0.0637
     13 C          67.7680   91.6663    9.9988 C.3     1  UNL1        0.0522
     14 C          63.6004   90.3155   14.4101 C.ar    1  UNL1        0.1805
     15 C          63.9229   91.2055   15.5737 C.ar    1  UNL1        0.0434
     16 C          63.7021   90.4205   16.8328 C.ar    1  UNL1        0.0362
     17 C          63.2431   89.0455   16.4472 C.ar    1  UNL1        0.1234
     18 C          62.9062   87.9310   17.3929 C.3     1  UNL1        0.0725
     19 O          63.1802   88.9806   14.9499 O.2     1  UNL1       -0.4546
     20 C          60.5287   89.7527    9.6346 C.2     1  UNL1        0.2717
     21 O          59.9086   90.5014   10.7770 O.2     1  UNL1       -0.2707
     22 N          62.0214   89.6936    9.4988 N.am    1  UNL1       -0.2662
     23 H          62.4284   89.2022    8.7491 H       1  UNL1        0.1564
     24 C          59.6562   89.0631    8.6281 C.3     1  UNL1        0.2897
     25 O          59.3738   87.5959    8.7603 O.3     1  UNL1       -0.4655
     26 C          63.0047   84.8447   11.2598 C.3     1  UNL1        0.0522
     27 C          62.3190   85.2338    9.9838 C.ar    1  UNL1        0.0620
     28 C          61.1893   86.2203   10.0100 C.ar    1  UNL1        0.0516
     29 C          60.5035   86.6094    8.7340 C.ar    1  UNL1        0.1416
     30 C          60.9474   86.0120    7.4317 C.ar    1  UNL1        0.0516
     31 C          62.0771   85.0256    7.4054 C.ar    1  UNL1        0.0620
     32 C          62.5210   84.4282    6.1030 C.3     1  UNL1        0.0522
     33 N          62.7628   84.6365    8.6814 N.ar    1  UNL1       -0.2538
@<TRIPOS>BOND
     1    26    27    1
     2    27    28   ar
     3    28    29   ar
     4    29    25    1
     5    25    24    1
     6    24    20    1
     7    20    21    2
     8    20    22   am
     9    22     1    1
    10     1     2   ar
    11     2     3   ar
    12     3     7    1
    13     7     8   ar
    14     8     9   ar
    15     9    10    1
    16     9    11   ar
    17    11    12   ar
    18    12    13    1
    19     3     4   ar
    20     4     5   ar
    21     5    14    1
    22    14    15   ar
    23    15    16   ar
    24    16    17   ar
    25    17    18    1
    26    17    19   ar
    27     5     6   ar
    28    29    30   ar
    29    30    31   ar
    30    31    32    1
    31    31    33   ar
    32    33    27   ar
    33     6     1   ar
    34    12     7   ar
    35    19    14   ar
    36    22    23    1
@<TRIPOS>MOLECULE
*****
 33 36 0 0 0
SMALL
GASTEIGER

@<TRIPOS>ATOM
      1 C          63.3950   88.6426   12.2385 C.ar    1  UNL1        0.1391
      2 C          63.5358   87.3207   12.9333 C.ar    1  UNL1        0.0733
      3 C          62.7479   86.1360   12.4582 C.ar    1  UNL1        0.1679
      4 N          61.8192   86.2733   11.2883 N.ar    1  UNL1       -0.2047
      5 C          61.6785   87.5952   10.5935 C.ar    1  UNL1        0.2001
      6 N          62.4664   88.7798   11.0686 N.ar    1  UNL1       -0.2088
      7 N          62.8886   84.8141   13.1530 N.ar    1  UNL1       -0.2164
      8 N          62.5300   83.4747   12.5809 N.ar    1  UNL1       -0.1684
      9 C          62.8324   82.4323   13.6163 C.ar    1  UNL1        0.0805
     10 C          62.6256   80.9543   13.4659 C.3     1  UNL1        0.0540
     11 C          63.3780   83.1275   14.8283 C.ar    1  UNL1        0.0312
     12 C          63.4127   84.5995   14.5420 C.ar    1  UNL1        0.0637
     13 C          63.8881   85.6692   15.4801 C.3     1  UNL1        0.0522
     14 C          60.7498   87.7324    9.4235 C.ar    1  UNL1        0.1805
     15 C          59.8558   86.6590    8.8769 C.ar    1  UNL1        0.0434
     16 C          59.1055   87.2302    7.7103 C.ar    1  UNL1        0.0362
     17 C          59.5359   88.6566    7.5360 C.ar    1  UNL1        0.1234
     18 C          59.0375   89.6059    6.4870 C.3     1  UNL1        0.0725
     19 O          60.5521   88.9669    8.5948 O.2     1  UNL1       -0.4546
     20 C          63.8344   90.4868   14.0150 C.2     1  UNL1        0.2717
     21 O          62.6979   89.9616   14.8412 O.2     1  UNL1       -0.2707
     22 N          64.1830   89.8273   12.7136 N.am    1  UNL1       -0.2662
     23 H          64.9289   90.1720   12.1714 H       1  UNL1        0.1564
     24 C          64.6223   91.6714   14.4902 C.3     1  UNL1        0.2897
     25 O          66.0635   91.8186   14.1012 O.3     1  UNL1       -0.4655
     26 C          68.3668   92.0841    9.4510 C.3     1  UNL1        0.0522
     27 C          67.5854   92.7365   10.5528 C.ar    1  UNL1        0.0620
     28 C          67.2152   91.9514   11.7761 C.ar    1  UNL1        0.0516
     29 C          66.4337   92.6037   12.8779 C.ar    1  UNL1        0.1416
     30 C          66.0226   94.0411   12.7563 C.ar    1  UNL1        0.0516
     31 C          66.3929   94.8262   11.5330 C.ar    1  UNL1        0.0620
     32 C          65.9817   96.2637   11.4114 C.3     1  UNL1        0.0522
     33 N          67.1743   94.1739   10.4313 N.ar    1  UNL1       -0.2538
@<TRIPOS>BOND
     1    26    27    1
     2    27    28   ar
     3    28    29   ar
     4    29    25    1
     5    25    24    1
     6    24    20    1
     7    20    21    2
     8    20    22   am
     9    22     1    1
    10     1     2   ar
    11     2     3   ar
    12     3     7    1
    13     7     8   ar
    14     8     9   ar
    15     9    10    1
    16     9    11   ar
    17    11    12   ar
    18    12    13    1
    19     3     4   ar
    20     4     5   ar
    21     5    14    1
    22    14    15   ar
    23    15    16   ar
    24    16    17   ar
    25    17    18    1
    26    17    19   ar
    27     5     6   ar
    28    29    30   ar
    29    30    31   ar
    30    31    32    1
    31    31    33   ar
    32    33    27   ar
    33     6     1   ar
    34    12     7   ar
    35    19    14   ar
    36    22    23    1
@<TRIPOS>MOLECULE
*****
 33 36 0 0 0
SMALL
GASTEIGER

@<TRIPOS>ATOM
      1 C          63.6583   88.1665   13.6392 C.ar    1  UNL1        0.1391
      2 C          62.8621   88.6363   12.4580 C.ar    1  UNL1        0.0733
      3 C          62.2541   87.6378   11.5183 C.ar    1  UNL1        0.1679
      4 N          62.4423   86.1694   11.7597 N.ar    1  UNL1       -0.2047
      5 C          63.2385   85.6996   12.9409 C.ar    1  UNL1        0.2001
      6 N          63.8466   86.6981   13.8806 N.ar    1  UNL1       -0.2088
      7 N          61.4578   88.1077   10.3371 N.ar    1  UNL1       -0.2164
      8 N          60.5098   87.2755    9.5254 N.ar    1  UNL1       -0.1684
      9 C          59.9358   88.1457    8.4468 C.ar    1  UNL1        0.0805
     10 C          58.9430   87.7205    7.4060 C.3     1  UNL1        0.0540
     11 C          60.5291   89.5157    8.5919 C.ar    1  UNL1        0.0312
     12 C          61.4697   89.4922    9.7601 C.ar    1  UNL1        0.0637
     13 C          62.2800   90.6500   10.2630 C.3     1  UNL1        0.0522
     14 C          63.4267   84.2311   13.1823 C.ar    1  UNL1        0.1805
     15 C          64.4962   83.6067   14.0287 C.ar    1  UNL1        0.0434
     16 C          64.3090   82.1189   13.9893 C.ar    1  UNL1        0.0362
     17 C          63.1237   81.8239   13.1185 C.ar    1  UNL1        0.1234
     18 C          62.5793   80.4624   12.8020 C.3     1  UNL1        0.0725
     19 O          62.5785   83.1292   12.6198 O.2     1  UNL1       -0.4546
     20 C          63.4161   89.8281   15.6218 C.2     1  UNL1        0.2717
     21 O          61.9577   89.4924   15.7248 O.2     1  UNL1       -0.2707
     22 N          64.2664   89.1651   14.5790 N.am    1  UNL1       -0.2662
     23 H          65.2236   89.3854   14.5113 H       1  UNL1        0.1564
     24 C          64.0241   90.8267   16.5615 C.3     1  UNL1        0.2897
     25 O          64.3881   92.1957   16.0683 O.3     1  UNL1       -0.4655
     26 C          67.0197   92.2892   11.5888 C.3     1  UNL1        0.0522
     27 C          66.9862   92.4533   13.0794 C.ar    1  UNL1        0.0620
     28 C          65.7040   92.2425   13.8286 C.ar    1  UNL1        0.0516
     29 C          65.6705   92.4066   15.3192 C.ar    1  UNL1        0.1416
     30 C          66.9193   92.7815   16.0607 C.ar    1  UNL1        0.0516
     31 C          68.2016   92.9924   15.3115 C.ar    1  UNL1        0.0620
     32 C          69.4505   93.3673   16.0530 C.3     1  UNL1        0.0522
     33 N          68.2351   92.8282   13.8209 N.ar    1  UNL1       -0.2538
@<TRIPOS>BOND
     1    26    27    1
     2    27    28   ar
     3    28    29   ar
     4    29    25    1
     5    25    24    1
     6    24    20    1
     7    20    21    2
     8    20    22   am
     9    22     1    1
    10     1     2   ar
    11     2     3   ar
    12     3     7    1
    13     7     8   ar
    14     8     9   ar
    15     9    10    1
    16     9    11   ar
    17    11    12   ar
    18    12    13    1
    19     3     4   ar
    20     4     5   ar
    21     5    14    1
    22    14    15   ar
    23    15    16   ar
    24    16    17   ar
    25    17    18    1
    26    17    19   ar
    27     5     6   ar
    28    29    30   ar
    29    30    31   ar
    30    31    32    1
    31    31    33   ar
    32    33    27   ar
    33     6     1   ar
    34    12     7   ar
    35    19    14   ar
    36    22    23    1
