@<TRIPOS>MOLECULE
*****
 35 38 0 0 0
SMALL
GASTEIGER

@<TRIPOS>ATOM
      1 C          62.4532   88.3425   11.5592 C.ar    1  UNL1        0.0544
      2 C          63.3748   88.7786   12.6594 C.ar    1  UNL1       -0.0163
      3 C          63.6168   87.8796   13.8355 C.3     1  UNL1        0.0310
      4 C          64.0544   90.1137   12.5836 C.ar    1  UNL1        0.0308
      5 C          64.9760   90.5497   13.6838 C.ar    1  UNL1        0.0058
      6 C          65.6555   91.8848   13.6079 C.ar    1  UNL1        0.0378
      7 C          65.4135   92.7838   12.4318 C.ar    1  UNL1        0.1517
      8 C          64.4919   92.3477   11.3316 C.ar    1  UNL1        0.0752
      9 C          63.8123   91.0127   11.4075 C.ar    1  UNL1        0.1514
     10 O          62.8907   90.5766   10.3072 O.2     1  UNL1       -0.4212
     11 C          62.2111   89.2415   10.3831 C.ar    1  UNL1        0.3417
     12 O          61.2895   88.8054    9.2829 O.2     1  UNL1       -0.2448
     13 C          61.7736   87.0074   11.6351 C.3     1  UNL1        0.0612
     14 C          63.6633   83.5177   11.6629 C.ar    1  UNL1        0.0928
     15 C          63.9033   83.3136   10.1964 C.ar    1  UNL1        0.0181
     16 C          63.4333   84.3408    9.2094 C.ar    1  UNL1        0.0011
     17 C          62.7234   85.5720    9.6890 C.ar    1  UNL1       -0.0016
     18 C          62.4834   85.7761   11.1555 C.ar    1  UNL1        0.0111
     19 C          62.9533   84.7490   12.1425 C.ar    1  UNL1        0.1509
     20 F          62.7134   84.9531   13.6090 F       1  UNL1       -0.2031
     21 N          64.1332   82.4906   12.6499 N.pl3   1  UNL1       -0.2032
     22 H          65.0788   82.2171   12.6632 H       1  UNL1        0.1749
     23 S          63.1622   81.8800   13.6165 S.O2    1  UNL1        0.1100
     24 O          62.3843   81.3034   12.4710 O.2     1  UNL1       -0.1381
     25 O          63.9401   82.4566   14.7621 O.2     1  UNL1       -0.1381
     26 C          60.8263   80.8584   14.1164 C.3     1  UNL1        0.1116
     27 N          62.1912   81.2695   14.5833 N.3     1  UNL1       -0.1651
     28 H          62.6376   80.4335   14.9605 H       1  UNL1        0.1502
     29 O          66.0931   94.1189   12.3559 O.3     1  UNL1       -0.4222
     30 C          66.4530   94.7025   11.0219 C.ar    1  UNL1        0.3246
     31 N          67.5223   94.0624   10.1870 N.ar    1  UNL1       -0.1924
     32 C          67.8823   94.6461    8.8529 C.ar    1  UNL1        0.1053
     33 C          67.1729   95.8698    8.3537 C.ar    1  UNL1        0.0416
     34 C          66.1036   96.5099    9.1885 C.ar    1  UNL1        0.1053
     35 N          65.7436   95.9263   10.5225 N.ar    1  UNL1       -0.1924
@<TRIPOS>BOND
     1    26    27    1
     2    27    23    1
     3    23    24    2
     4    23    25    2
     5    23    21    1
     6    21    14    1
     7    14    15   ar
     8    15    16   ar
     9    16    17   ar
    10    17    18   ar
    11    18    13    1
    12    13     1    1
    13     1     2   ar
    14     2     3    1
    15     2     4   ar
    16     4     5   ar
    17     5     6   ar
    18     6     7   ar
    19     7    29    1
    20    29    30    1
    21    30    31   ar
    22    31    32   ar
    23    32    33   ar
    24    33    34   ar
    25    34    35   ar
    26     7     8   ar
    27     8     9   ar
    28     9    10   ar
    29    10    11   ar
    30    11    12    2
    31    18    19   ar
    32    19    20    1
    33    19    14   ar
    34    11     1   ar
    35     9     4   ar
    36    35    30   ar
    37    27    28    1
    38    21    22    1
@<TRIPOS>MOLECULE
*****
 35 38 0 0 0
SMALL
GASTEIGER

@<TRIPOS>ATOM
      1 C          62.7530   87.7465   12.1921 C.ar    1  UNL1        0.0544
      2 C          62.7085   88.8608   11.1890 C.ar    1  UNL1       -0.0163
      3 C          61.8857   88.7161    9.9432 C.3     1  UNL1        0.0310
      4 C          63.4869   90.1199   11.4316 C.ar    1  UNL1        0.0308
      5 C          63.4425   91.2342   10.4285 C.ar    1  UNL1        0.0058
      6 C          64.2209   92.4933   10.6712 C.ar    1  UNL1        0.0378
      7 C          65.0437   92.6380   11.9170 C.ar    1  UNL1        0.1517
      8 C          65.0881   91.5237   12.9201 C.ar    1  UNL1        0.0752
      9 C          64.3098   90.2646   12.6774 C.ar    1  UNL1        0.1514
     10 O          64.3542   89.1502   13.6806 O.2     1  UNL1       -0.4212
     11 C          63.5758   87.8912   13.4379 C.ar    1  UNL1        0.3417
     12 O          63.6202   86.7768   14.4410 O.2     1  UNL1       -0.2448
     13 C          61.9746   86.4874   11.9494 C.3     1  UNL1        0.0612
     14 C          63.7750   82.9629   11.6557 C.ar    1  UNL1        0.0928
     15 C          64.0127   82.8884   10.1765 C.ar    1  UNL1        0.0181
     16 C          63.5710   84.0137    9.2883 C.ar    1  UNL1        0.0011
     17 C          62.8916   85.2133    9.8793 C.ar    1  UNL1       -0.0016
     18 C          62.6539   85.2878   11.3585 C.ar    1  UNL1        0.0111
     19 C          63.0956   84.1626   12.2467 C.ar    1  UNL1        0.1509
     20 F          62.8579   84.2371   13.7258 F       1  UNL1       -0.2031
     21 N          64.2167   81.8378   12.5439 N.pl3   1  UNL1       -0.2032
     22 H          65.1726   81.6130   12.6151 H       1  UNL1        0.1749
     23 S          63.2021   81.0552   13.3236 S.O2    1  UNL1        0.1100
     24 O          62.6795   80.4625   12.0487 O.2     1  UNL1       -0.1381
     25 O          63.7247   81.6480   14.5986 O.2     1  UNL1       -0.1381
     26 C          60.7549   80.7168   14.1279 C.3     1  UNL1        0.1116
     27 N          62.1874   80.2727   14.1035 N.3     1  UNL1       -0.1651
     28 H          62.1953   79.3242   13.7283 H       1  UNL1        0.1502
     29 O          65.8221   93.8971   12.1596 O.3     1  UNL1       -0.4222
     30 C          66.3704   94.6751   11.0003 C.ar    1  UNL1        0.3246
     31 N          67.3953   94.0543   10.0981 N.ar    1  UNL1       -0.1924
     32 C          67.9436   94.8323    8.9387 C.ar    1  UNL1        0.1053
     33 C          67.4669   96.2311    8.6816 C.ar    1  UNL1        0.0416
     34 C          66.4420   96.8519    9.5839 C.ar    1  UNL1        0.1053
     35 N          65.8937   96.0739   10.7432 N.ar    1  UNL1       -0.1924
@<TRIPOS>BOND
     1    26    27    1
     2    27    23    1
     3    23    24    2
     4    23    25    2
     5    23    21    1
     6    21    14    1
     7    14    15   ar
     8    15    16   ar
     9    16    17   ar
    10    17    18   ar
    11    18    13    1
    12    13     1    1
    13     1     2   ar
    14     2     3    1
    15     2     4   ar
    16     4     5   ar
    17     5     6   ar
    18     6     7   ar
    19     7    29    1
    20    29    30    1
    21    30    31   ar
    22    31    32   ar
    23    32    33   ar
    24    33    34   ar
    25    34    35   ar
    26     7     8   ar
    27     8     9   ar
    28     9    10   ar
    29    10    11   ar
    30    11    12    2
    31    18    19   ar
    32    19    20    1
    33    19    14   ar
    34    11     1   ar
    35     9     4   ar
    36    35    30   ar
    37    27    28    1
    38    21    22    1
@<TRIPOS>MOLECULE
*****
 35 38 0 0 0
SMALL
GASTEIGER

@<TRIPOS>ATOM
      1 C          63.4146   89.4103   13.1319 C.ar    1  UNL1        0.0544
      2 C          63.8064   88.8064   14.4478 C.ar    1  UNL1       -0.0163
      3 C          64.1621   89.6935   15.6039 C.3     1  UNL1        0.0310
      4 C          63.8425   87.3153   14.6077 C.ar    1  UNL1        0.0308
      5 C          64.2343   86.7114   15.9237 C.ar    1  UNL1        0.0058
      6 C          64.2705   85.2205   16.0836 C.ar    1  UNL1        0.0378
      7 C          63.9148   84.3333   14.9275 C.ar    1  UNL1        0.1517
      8 C          63.5229   84.9372   13.6115 C.ar    1  UNL1        0.0752
      9 C          63.4868   86.4282   13.4517 C.ar    1  UNL1        0.1514
     10 O          63.0950   87.0322   12.1357 O.2     1  UNL1       -0.4212
     11 C          63.0589   88.5232   11.9758 C.ar    1  UNL1        0.3417
     12 O          62.6670   89.1271   10.6598 O.2     1  UNL1       -0.2448
     13 C          63.3784   90.9013   12.9720 C.3     1  UNL1        0.0612
     14 C          66.3364   92.8393   11.1706 C.ar    1  UNL1        0.0928
     15 C          67.2016   93.1903   12.3446 C.ar    1  UNL1        0.0181
     16 C          66.7924   92.7783   13.7277 C.ar    1  UNL1        0.0011
     17 C          65.5180   92.0154   13.9368 C.ar    1  UNL1       -0.0016
     18 C          64.6528   91.6643   12.7629 C.ar    1  UNL1        0.0111
     19 C          65.0619   92.0762   11.3798 C.ar    1  UNL1        0.1509
     20 F          64.1967   91.7252   10.2059 F       1  UNL1       -0.2031
     21 N          66.7455   93.2512    9.7876 N.pl3   1  UNL1       -0.2032
     22 H          66.6754   92.6116    9.0425 H       1  UNL1        0.1749
     23 S          67.2616   94.6376    9.5398 S.O2    1  UNL1        0.1100
     24 O          68.6454   94.0894    9.3543 O.2     1  UNL1       -0.1381
     25 O          65.8778   95.1859    9.7254 O.2     1  UNL1       -0.1381
     26 C          67.1949   96.8550    8.1875 C.3     1  UNL1        0.1116
     27 N          67.7776   96.0242    9.2921 N.3     1  UNL1       -0.1651
     28 H          67.6424   96.5476   10.1570 H       1  UNL1        0.1502
     29 O          63.9509   82.8423   15.0874 O.3     1  UNL1       -0.4222
     30 C          63.5461   81.9557   13.9472 C.ar    1  UNL1        0.3246
     31 N          63.8893   82.3412   12.5388 N.ar    1  UNL1       -0.1924
     32 C          63.4845   81.4546   11.3987 C.ar    1  UNL1        0.1053
     33 C          62.7365   80.1824   11.6669 C.ar    1  UNL1        0.0416
     34 C          62.3933   79.7968   13.0752 C.ar    1  UNL1        0.1053
     35 N          62.7981   80.6834   14.2154 N.ar    1  UNL1       -0.1924
@<TRIPOS>BOND
     1    26    27    1
     2    27    23    1
     3    23    24    2
     4    23    25    2
     5    23    21    1
     6    21    14    1
     7    14    15   ar
     8    15    16   ar
     9    16    17   ar
    10    17    18   ar
    11    18    13    1
    12    13     1    1
    13     1     2   ar
    14     2     3    1
    15     2     4   ar
    16     4     5   ar
    17     5     6   ar
    18     6     7   ar
    19     7    29    1
    20    29    30    1
    21    30    31   ar
    22    31    32   ar
    23    32    33   ar
    24    33    34   ar
    25    34    35   ar
    26     7     8   ar
    27     8     9   ar
    28     9    10   ar
    29    10    11   ar
    30    11    12    2
    31    18    19   ar
    32    19    20    1
    33    19    14   ar
    34    11     1   ar
    35     9     4   ar
    36    35    30   ar
    37    27    28    1
    38    21    22    1
@<TRIPOS>MOLECULE
*****
 35 38 0 0 0
SMALL
GASTEIGER

@<TRIPOS>ATOM
      1 C          62.5358   86.9702   11.9290 C.ar    1  UNL1        0.0544
      2 C          62.5439   88.2049   11.0772 C.ar    1  UNL1       -0.0163
      3 C          61.8486   88.2038    9.7481 C.3     1  UNL1        0.0310
      4 C          63.2473   89.4408   11.5546 C.ar    1  UNL1        0.0308
      5 C          63.2554   90.6755   10.7029 C.ar    1  UNL1        0.0058
      6 C          63.9588   91.9113   11.1803 C.ar    1  UNL1        0.0378
      7 C          64.6541   91.9124   12.5094 C.ar    1  UNL1        0.1517
      8 C          64.6460   90.6778   13.3611 C.ar    1  UNL1        0.0752
      9 C          63.9426   89.4419   12.8837 C.ar    1  UNL1        0.1514
     10 O          63.9345   88.2072   13.7355 O.2     1  UNL1       -0.4212
     11 C          63.2311   86.9714   13.2581 C.ar    1  UNL1        0.3417
     12 O          63.2230   85.7366   14.1098 O.2     1  UNL1       -0.2448
     13 C          61.8324   85.7343   11.4516 C.3     1  UNL1        0.0612
     14 C          63.5241   82.1708   11.8866 C.ar    1  UNL1        0.0928
     15 C          64.1904   82.0086   10.5525 C.ar    1  UNL1        0.0181
     16 C          64.0706   83.0883    9.5181 C.ar    1  UNL1        0.0011
     17 C          63.2846   84.3302    9.8178 C.ar    1  UNL1       -0.0016
     18 C          62.6184   84.4924   11.1519 C.ar    1  UNL1        0.0111
     19 C          62.7381   83.4128   12.1863 C.ar    1  UNL1        0.1509
     20 F          62.0718   83.5750   13.5203 F       1  UNL1       -0.2031
     21 N          63.6439   81.0912   12.9210 N.pl3   1  UNL1       -0.2032
     22 H          64.5256   80.8638   13.2954 H       1  UNL1        0.1749
     23 S          62.4203   80.3580   13.3848 S.O2    1  UNL1        0.1100
     24 O          62.4162   81.1649   14.6493 O.2     1  UNL1       -0.1381
     25 O          62.4245   79.5511   12.1204 O.2     1  UNL1       -0.1381
     26 C          59.9480   80.3856   14.1829 C.3     1  UNL1        0.1116
     27 N          61.1967   79.6247   13.8487 N.3     1  UNL1       -0.1651
     28 H          60.9509   78.9653   13.1103 H       1  UNL1        0.1502
     29 O          65.3575   93.1483   12.9868 O.3     1  UNL1       -0.4222
     30 C          66.4606   93.0404   13.9975 C.ar    1  UNL1        0.3246
     31 N          66.1443   93.1027   15.4624 N.ar    1  UNL1       -0.1924
     32 C          67.2474   92.9948   16.4731 C.ar    1  UNL1        0.1053
     33 C          68.6668   92.8246   16.0189 C.ar    1  UNL1        0.0416
     34 C          68.9831   92.7623   14.5539 C.ar    1  UNL1        0.1053
     35 N          67.8800   92.8702   13.5432 N.ar    1  UNL1       -0.1924
@<TRIPOS>BOND
     1    26    27    1
     2    27    23    1
     3    23    24    2
     4    23    25    2
     5    23    21    1
     6    21    14    1
     7    14    15   ar
     8    15    16   ar
     9    16    17   ar
    10    17    18   ar
    11    18    13    1
    12    13     1    1
    13     1     2   ar
    14     2     3    1
    15     2     4   ar
    16     4     5   ar
    17     5     6   ar
    18     6     7   ar
    19     7    29    1
    20    29    30    1
    21    30    31   ar
    22    31    32   ar
    23    32    33   ar
    24    33    34   ar
    25    34    35   ar
    26     7     8   ar
    27     8     9   ar
    28     9    10   ar
    29    10    11   ar
    30    11    12    2
    31    18    19   ar
    32    19    20    1
    33    19    14   ar
    34    11     1   ar
    35     9     4   ar
    36    35    30   ar
    37    27    28    1
    38    21    22    1
@<TRIPOS>MOLECULE
*****
 35 38 0 0 0
SMALL
GASTEIGER

@<TRIPOS>ATOM
      1 C          63.3229   89.4213   12.9476 C.ar    1  UNL1        0.0544
      2 C          62.7594   88.8565   11.6774 C.ar    1  UNL1       -0.0163
      3 C          62.1988   89.7746   10.6321 C.3     1  UNL1        0.0310
      4 C          62.7563   87.3734   11.4526 C.ar    1  UNL1        0.0308
      5 C          62.1928   86.8085   10.1824 C.ar    1  UNL1        0.0058
      6 C          62.1898   85.3255    9.9576 C.ar    1  UNL1        0.0378
      7 C          62.7503   84.4073   11.0030 C.ar    1  UNL1        0.1517
      8 C          63.3139   84.9722   12.2731 C.ar    1  UNL1        0.0752
      9 C          63.3168   86.4552   12.4979 C.ar    1  UNL1        0.1514
     10 O          63.8804   87.0201   13.7682 O.2     1  UNL1       -0.4212
     11 C          63.8834   88.5031   13.9930 C.ar    1  UNL1        0.3417
     12 O          64.4469   89.0680   15.2632 O.2     1  UNL1       -0.2448
     13 C          63.3259   90.9044   13.1725 C.3     1  UNL1        0.0612
     14 C          66.2806   92.8750   11.4016 C.ar    1  UNL1        0.0928
     15 C          67.1144   93.2612   12.5872 C.ar    1  UNL1        0.0181
     16 C          66.6853   92.8617   13.9680 C.ar    1  UNL1        0.0011
     17 C          65.4225   92.0761   14.1630 C.ar    1  UNL1       -0.0016
     18 C          64.5887   91.6900   12.9774 C.ar    1  UNL1        0.0111
     19 C          65.0177   92.0894   11.5967 C.ar    1  UNL1        0.1509
     20 F          64.1839   91.7033   10.4111 F       1  UNL1       -0.2031
     21 N          66.7097   93.2745   10.0209 N.pl3   1  UNL1       -0.2032
     22 H          66.6573   92.6258    9.2822 H       1  UNL1        0.1749
     23 S          67.2185   94.6622    9.7658 S.O2    1  UNL1        0.1100
     24 O          68.5941   94.1140    9.5268 O.2     1  UNL1       -0.1381
     25 O          65.8429   95.2105   10.0048 O.2     1  UNL1       -0.1381
     26 C          67.1706   96.8559    8.3746 C.3     1  UNL1        0.1116
     27 N          67.7273   96.0501    9.5107 N.3     1  UNL1       -0.1651
     28 H          67.5596   96.5863   10.3620 H       1  UNL1        0.1502
     29 O          62.7473   82.9242   10.7781 O.3     1  UNL1       -0.4222
     30 C          62.5319   81.9911   11.9325 C.ar    1  UNL1        0.3246
     31 N          62.7577   80.5184   11.7587 N.ar    1  UNL1       -0.1924
     32 C          62.5422   79.5852   12.9132 C.ar    1  UNL1        0.1053
     33 C          62.1010   80.1247   14.2414 C.ar    1  UNL1        0.0416
     34 C          61.8752   81.5974   14.4152 C.ar    1  UNL1        0.1053
     35 N          62.0907   82.5306   13.2608 N.ar    1  UNL1       -0.1924
@<TRIPOS>BOND
     1    26    27    1
     2    27    23    1
     3    23    24    2
     4    23    25    2
     5    23    21    1
     6    21    14    1
     7    14    15   ar
     8    15    16   ar
     9    16    17   ar
    10    17    18   ar
    11    18    13    1
    12    13     1    1
    13     1     2   ar
    14     2     3    1
    15     2     4   ar
    16     4     5   ar
    17     5     6   ar
    18     6     7   ar
    19     7    29    1
    20    29    30    1
    21    30    31   ar
    22    31    32   ar
    23    32    33   ar
    24    33    34   ar
    25    34    35   ar
    26     7     8   ar
    27     8     9   ar
    28     9    10   ar
    29    10    11   ar
    30    11    12    2
    31    18    19   ar
    32    19    20    1
    33    19    14   ar
    34    11     1   ar
    35     9     4   ar
    36    35    30   ar
    37    27    28    1
    38    21    22    1
@<TRIPOS>MOLECULE
*****
 35 38 0 0 0
SMALL
GASTEIGER

@<TRIPOS>ATOM
      1 C          63.3095   89.0645   12.3222 C.ar    1  UNL1        0.0544
      2 C          62.7175   87.8969   11.5900 C.ar    1  UNL1       -0.0163
      3 C          63.1247   86.4995   11.9528 C.3     1  UNL1        0.0310
      4 C          61.7183   88.1266   10.4950 C.ar    1  UNL1        0.0308
      5 C          61.1263   86.9589    9.7629 C.ar    1  UNL1        0.0058
      6 C          60.1272   87.1886    8.6679 C.ar    1  UNL1        0.0378
      7 C          59.7200   88.5860    8.3052 C.ar    1  UNL1        0.1517
      8 C          60.3120   89.7537    9.0374 C.ar    1  UNL1        0.0752
      9 C          61.3111   89.5239   10.1323 C.ar    1  UNL1        0.1514
     10 O          61.9032   90.6916   10.8645 O.2     1  UNL1       -0.4212
     11 C          62.9023   90.4619   11.9594 C.ar    1  UNL1        0.3417
     12 O          63.4944   91.6296   12.6917 O.2     1  UNL1       -0.2448
     13 C          64.3087   88.8349   13.4172 C.3     1  UNL1        0.0612
     14 C          63.5202   86.1781   16.2579 C.ar    1  UNL1        0.0928
     15 C          62.9835   87.0694   17.3385 C.ar    1  UNL1        0.0181
     16 C          62.8885   88.5492   17.1119 C.ar    1  UNL1        0.0011
     17 C          63.3302   89.1376   15.8048 C.ar    1  UNL1       -0.0016
     18 C          63.8670   88.2464   14.7243 C.ar    1  UNL1        0.0111
     19 C          63.9620   86.7667   14.9508 C.ar    1  UNL1        0.1509
     20 F          64.4987   85.8754   13.8702 F       1  UNL1       -0.2031
     21 N          63.6152   84.6984   16.4845 N.pl3   1  UNL1       -0.2032
     22 H          64.0991   84.3504   17.2680 H       1  UNL1        0.1749
     23 S          62.9729   83.7489   15.5171 S.O2    1  UNL1        0.1100
     24 O          64.2277   82.9275   15.4902 O.2     1  UNL1       -0.1381
     25 O          61.7181   84.5703   15.5439 O.2     1  UNL1       -0.1381
     26 C          62.7560   82.7922   13.1113 C.3     1  UNL1        0.1116
     27 N          62.3306   82.7993   14.5497 N.3     1  UNL1       -0.1651
     28 H          62.4923   81.8585   14.9092 H       1  UNL1        0.1502
     29 O          58.7208   88.8157    7.2102 O.3     1  UNL1       -0.4222
     30 C          58.9292   89.9283    6.2260 C.ar    1  UNL1        0.3246
     31 N          57.7631   90.7540    5.7696 N.ar    1  UNL1       -0.1924
     32 C          57.9715   91.8667    4.7853 C.ar    1  UNL1        0.1053
     33 C          59.3460   92.1535    4.2575 C.ar    1  UNL1        0.0416
     34 C          60.5121   91.3277    4.7140 C.ar    1  UNL1        0.1053
     35 N          60.3037   90.2151    5.6982 N.ar    1  UNL1       -0.1924
@<TRIPOS>BOND
     1    26    27    1
     2    27    23    1
     3    23    24    2
     4    23    25    2
     5    23    21    1
     6    21    14    1
     7    14    15   ar
     8    15    16   ar
     9    16    17   ar
    10    17    18   ar
    11    18    13    1
    12    13     1    1
    13     1     2   ar
    14     2     3    1
    15     2     4   ar
    16     4     5   ar
    17     5     6   ar
    18     6     7   ar
    19     7    29    1
    20    29    30    1
    21    30    31   ar
    22    31    32   ar
    23    32    33   ar
    24    33    34   ar
    25    34    35   ar
    26     7     8   ar
    27     8     9   ar
    28     9    10   ar
    29    10    11   ar
    30    11    12    2
    31    18    19   ar
    32    19    20    1
    33    19    14   ar
    34    11     1   ar
    35     9     4   ar
    36    35    30   ar
    37    27    28    1
    38    21    22    1
@<TRIPOS>MOLECULE
*****
 35 38 0 0 0
SMALL
GASTEIGER

@<TRIPOS>ATOM
      1 C          63.1326   89.3239   12.7699 C.ar    1  UNL1        0.0544
      2 C          63.6491   88.7828   14.0700 C.ar    1  UNL1       -0.0163
      3 C          64.0244   89.7225   15.1773 C.3     1  UNL1        0.0310
      4 C          63.7905   87.3019   14.2629 C.ar    1  UNL1        0.0308
      5 C          64.3070   86.7608   15.5630 C.ar    1  UNL1        0.0058
      6 C          64.4483   85.2800   15.7558 C.ar    1  UNL1        0.0378
      7 C          64.0730   84.3403   14.6485 C.ar    1  UNL1        0.1517
      8 C          63.5565   84.8814   13.3483 C.ar    1  UNL1        0.0752
      9 C          63.4152   86.3622   13.1555 C.ar    1  UNL1        0.1514
     10 O          62.8987   86.9034   11.8554 O.2     1  UNL1       -0.4212
     11 C          62.7574   88.3842   11.6626 C.ar    1  UNL1        0.3417
     12 O          62.2409   88.9254   10.3624 O.2     1  UNL1       -0.2448
     13 C          62.9913   90.8048   12.5770 C.3     1  UNL1        0.0612
     14 C          66.3018   92.9904   12.4607 C.ar    1  UNL1        0.0928
     15 C          66.4473   93.2062   10.9834 C.ar    1  UNL1        0.0181
     16 C          65.4407   92.6214   10.0374 C.ar    1  UNL1        0.0011
     17 C          64.2888   91.8209   10.5686 C.ar    1  UNL1       -0.0016
     18 C          64.1433   91.6052   12.0458 C.ar    1  UNL1        0.0111
     19 C          65.1497   92.1899   12.9919 C.ar    1  UNL1        0.1509
     20 F          65.0043   91.9742   14.4691 F       1  UNL1       -0.2031
     21 N          67.3083   93.5752   13.4068 N.pl3   1  UNL1       -0.2032
     22 H          67.4840   94.5438   13.4016 H       1  UNL1        0.1749
     23 S          68.0470   92.6840   14.3607 S.O2    1  UNL1        0.1100
     24 O          67.4820   93.4539   15.5174 O.2     1  UNL1       -0.1381
     25 O          68.6119   91.9141   13.2040 O.2     1  UNL1       -0.1381
     26 C          69.1637   92.2997   16.6749 C.3     1  UNL1        0.1116
     27 N          68.7857   91.7928   15.3147 N.3     1  UNL1       -0.1651
     28 H          68.2025   90.9685   15.4593 H       1  UNL1        0.1502
     29 O          64.2143   82.8594   14.8413 O.3     1  UNL1       -0.4222
     30 C          63.6688   81.9137   13.8127 C.ar    1  UNL1        0.3246
     31 N          63.9334   82.1556   12.3562 N.ar    1  UNL1       -0.1924
     32 C          63.3879   81.2098   11.3276 C.ar    1  UNL1        0.1053
     33 C          62.5777   80.0222   11.7556 C.ar    1  UNL1        0.0416
     34 C          62.3131   79.7803   13.2121 C.ar    1  UNL1        0.1053
     35 N          62.8586   80.7260   14.2407 N.ar    1  UNL1       -0.1924
@<TRIPOS>BOND
     1    26    27    1
     2    27    23    1
     3    23    24    2
     4    23    25    2
     5    23    21    1
     6    21    14    1
     7    14    15   ar
     8    15    16   ar
     9    16    17   ar
    10    17    18   ar
    11    18    13    1
    12    13     1    1
    13     1     2   ar
    14     2     3    1
    15     2     4   ar
    16     4     5   ar
    17     5     6   ar
    18     6     7   ar
    19     7    29    1
    20    29    30    1
    21    30    31   ar
    22    31    32   ar
    23    32    33   ar
    24    33    34   ar
    25    34    35   ar
    26     7     8   ar
    27     8     9   ar
    28     9    10   ar
    29    10    11   ar
    30    11    12    2
    31    18    19   ar
    32    19    20    1
    33    19    14   ar
    34    11     1   ar
    35     9     4   ar
    36    35    30   ar
    37    27    28    1
    38    21    22    1
@<TRIPOS>MOLECULE
*****
 35 38 0 0 0
SMALL
GASTEIGER

@<TRIPOS>ATOM
      1 C          63.0986   88.9423   12.2535 C.ar    1  UNL1        0.0544
      2 C          62.5319   87.7690   11.5106 C.ar    1  UNL1       -0.0163
      3 C          62.9077   86.3737   11.9132 C.3     1  UNL1        0.0310
      4 C          61.5894   87.9908   10.3649 C.ar    1  UNL1        0.0308
      5 C          61.0227   86.8175    9.6219 C.ar    1  UNL1        0.0058
      6 C          60.0803   87.0394    8.4763 C.ar    1  UNL1        0.0378
      7 C          59.7046   88.4346    8.0736 C.ar    1  UNL1        0.1517
      8 C          60.2713   89.6079    8.8166 C.ar    1  UNL1        0.0752
      9 C          61.2137   89.3860    9.9622 C.ar    1  UNL1        0.1514
     10 O          61.7804   90.5594   10.7053 O.2     1  UNL1       -0.4212
     11 C          62.7229   90.3375   11.8509 C.ar    1  UNL1        0.3417
     12 O          63.2896   91.5109   12.5939 O.2     1  UNL1       -0.2448
     13 C          64.0411   88.7204   13.3993 C.3     1  UNL1        0.0612
     14 C          65.2611   91.8777   15.4712 C.ar    1  UNL1        0.0928
     15 C          64.3666   91.7916   16.6722 C.ar    1  UNL1        0.0181
     16 C          63.3635   90.6817   16.7821 C.ar    1  UNL1        0.0011
     17 C          63.2550   89.6580   15.6912 C.ar    1  UNL1       -0.0016
     18 C          64.1496   89.7441   14.4902 C.ar    1  UNL1        0.0111
     19 C          65.1526   90.8540   14.3802 C.ar    1  UNL1        0.1509
     20 F          66.0472   90.9401   13.1792 F       1  UNL1       -0.2031
     21 N          66.2642   92.9876   15.3612 N.pl3   1  UNL1       -0.2032
     22 H          66.0232   93.8988   15.6453 H       1  UNL1        0.1749
     23 S          67.6344   92.7090   14.8182 S.O2    1  UNL1        0.1100
     24 O          67.9745   91.9496   16.0662 O.2     1  UNL1       -0.1381
     25 O          67.2942   93.4684   13.5702 O.2     1  UNL1       -0.1381
     26 C          69.1616   91.7012   12.9737 C.3     1  UNL1        0.1116
     27 N          69.0046   92.4304   14.2751 N.3     1  UNL1       -0.1651
     28 H          69.4666   93.3330   14.1645 H       1  UNL1        0.1502
     29 O          58.7621   88.6565    6.9279 O.3     1  UNL1       -0.4222
     30 C          58.9202   89.8618    6.0493 C.ar    1  UNL1        0.3246
     31 N          60.2810   90.2595    5.5593 N.ar    1  UNL1       -0.1924
     32 C          60.4390   91.4649    4.6806 C.ar    1  UNL1        0.1053
     33 C          59.2363   92.2727    4.2920 C.ar    1  UNL1        0.0416
     34 C          57.8755   91.8751    4.7821 C.ar    1  UNL1        0.1053
     35 N          57.7174   90.6697    5.6607 N.ar    1  UNL1       -0.1924
@<TRIPOS>BOND
     1    26    27    1
     2    27    23    1
     3    23    24    2
     4    23    25    2
     5    23    21    1
     6    21    14    1
     7    14    15   ar
     8    15    16   ar
     9    16    17   ar
    10    17    18   ar
    11    18    13    1
    12    13     1    1
    13     1     2   ar
    14     2     3    1
    15     2     4   ar
    16     4     5   ar
    17     5     6   ar
    18     6     7   ar
    19     7    29    1
    20    29    30    1
    21    30    31   ar
    22    31    32   ar
    23    32    33   ar
    24    33    34   ar
    25    34    35   ar
    26     7     8   ar
    27     8     9   ar
    28     9    10   ar
    29    10    11   ar
    30    11    12    2
    31    18    19   ar
    32    19    20    1
    33    19    14   ar
    34    11     1   ar
    35     9     4   ar
    36    35    30   ar
    37    27    28    1
    38    21    22    1
@<TRIPOS>MOLECULE
*****
 35 38 0 0 0
SMALL
GASTEIGER

@<TRIPOS>ATOM
      1 C          63.1194   89.3615   12.5847 C.ar    1  UNL1        0.0544
      2 C          62.6156   88.6946   11.3392 C.ar    1  UNL1       -0.0163
      3 C          62.0216   89.5181   10.2352 C.3     1  UNL1        0.0310
      4 C          62.7058   87.2039   11.1977 C.ar    1  UNL1        0.0308
      5 C          62.2020   86.5370    9.9522 C.ar    1  UNL1        0.0058
      6 C          62.2922   85.0464    9.8107 C.ar    1  UNL1        0.0378
      7 C          62.8863   84.2228   10.9147 C.ar    1  UNL1        0.1517
      8 C          63.3901   84.8898   12.1602 C.ar    1  UNL1        0.0752
      9 C          63.2999   86.3803   12.3017 C.ar    1  UNL1        0.1514
     10 O          63.8037   87.0474   13.5472 O.2     1  UNL1       -0.4212
     11 C          63.7135   88.5379   13.6887 C.ar    1  UNL1        0.3417
     12 O          64.2173   89.2050   14.9342 O.2     1  UNL1       -0.2448
     13 C          63.0292   90.8522   12.7262 C.3     1  UNL1        0.0612
     14 C          66.2584   93.1591   12.7269 C.ar    1  UNL1        0.0928
     15 C          66.3930   93.4589   11.2633 C.ar    1  UNL1        0.0181
     16 C          65.4062   92.8897   10.2874 C.ar    1  UNL1        0.0011
     17 C          64.2850   92.0208   10.7750 C.ar    1  UNL1       -0.0016
     18 C          64.1504   91.7211   12.2386 C.ar    1  UNL1        0.0111
     19 C          65.1371   92.2902   13.2145 C.ar    1  UNL1        0.1509
     20 F          65.0026   91.9904   14.6781 F       1  UNL1       -0.2031
     21 N          67.2451   93.7283   13.7028 N.pl3   1  UNL1       -0.2032
     22 H          67.3227   94.7036   13.8122 H       1  UNL1        0.1749
     23 S          68.1136   92.8114   14.5121 S.O2    1  UNL1        0.1100
     24 O          68.5557   92.1213   13.2558 O.2     1  UNL1       -0.1381
     25 O          67.6715   93.5014   15.7684 O.2     1  UNL1       -0.1381
     26 C          68.9516   91.9611   16.8197 C.3     1  UNL1        0.1116
     27 N          68.9821   91.8945   15.3214 N.3     1  UNL1       -0.1651
     28 H          68.7249   90.9417   15.0638 H       1  UNL1        0.1502
     29 O          62.9765   82.7322   10.7732 O.3     1  UNL1       -0.4222
     30 C          62.6396   81.8467   11.9360 C.ar    1  UNL1        0.3246
     31 N          62.8359   80.3633   11.8307 N.ar    1  UNL1       -0.1924
     32 C          62.4990   79.4777   12.9937 C.ar    1  UNL1        0.1053
     33 C          61.9659   80.0756   14.2619 C.ar    1  UNL1        0.0416
     34 C          61.7696   81.5589   14.3672 C.ar    1  UNL1        0.1053
     35 N          62.1065   82.4445   13.2043 N.ar    1  UNL1       -0.1924
@<TRIPOS>BOND
     1    26    27    1
     2    27    23    1
     3    23    24    2
     4    23    25    2
     5    23    21    1
     6    21    14    1
     7    14    15   ar
     8    15    16   ar
     9    16    17   ar
    10    17    18   ar
    11    18    13    1
    12    13     1    1
    13     1     2   ar
    14     2     3    1
    15     2     4   ar
    16     4     5   ar
    17     5     6   ar
    18     6     7   ar
    19     7    29    1
    20    29    30    1
    21    30    31   ar
    22    31    32   ar
    23    32    33   ar
    24    33    34   ar
    25    34    35   ar
    26     7     8   ar
    27     8     9   ar
    28     9    10   ar
    29    10    11   ar
    30    11    12    2
    31    18    19   ar
    32    19    20    1
    33    19    14   ar
    34    11     1   ar
    35     9     4   ar
    36    35    30   ar
    37    27    28    1
    38    21    22    1
