@<TRIPOS>MOLECULE
*****
 41 46 0 0 0
SMALL
GASTEIGER

@<TRIPOS>ATOM
      1 C          64.0104   89.6343   15.7740 C.ar    1  UNL1        0.1667
      2 N          63.2711   88.8872   16.8441 N.ar    1  UNL1       -0.2239
      3 C          63.1867   87.4478   16.4307 C.ar    1  UNL1        0.0893
      4 C          62.5730   86.2484   17.0901 C.ar    1  UNL1        0.0202
      5 C          62.6464   84.9066   16.4237 C.ar    1  UNL1        0.0081
      6 C          63.3335   84.7641   15.0980 C.ar    1  UNL1        0.0329
      7 C          63.9473   85.9635   14.4386 C.ar    1  UNL1        0.0146
      8 C          63.8739   87.3053   15.1049 C.ar    1  UNL1        0.0502
      9 S          64.3829   88.6567   14.6991 S.2     1  UNL1       -0.0513
     10 O          66.0490   90.7396   13.8707 O.2     1  UNL1       -0.2524
     11 C          65.3416   91.6542   14.8264 C.2     1  UNL1        0.3059
     12 N          65.6536   93.1214   14.8304 N.am    1  UNL1       -0.2872
     13 N          64.3223   91.1015   15.7780 N.am    1  UNL1       -0.2485
     14 H          65.1893   93.7216   15.4576 H       1  UNL1        0.1510
     15 H          63.8581   91.7018   16.4052 H       1  UNL1        0.1583
     16 C          66.6729   93.6740   13.8787 C.3     1  UNL1        0.1082
     17 C          66.2344   94.2777   12.5775 C.3     1  UNL1        0.0938
     18 N          66.9103   93.8777   11.2996 N.3     1  UNL1       -0.2670
     19 C          67.4289   92.4803   11.1309 C.3     1  UNL1        0.1047
     20 C          68.1048   92.0803    9.8530 C.3     1  UNL1        0.1595
     21 O          68.2621   93.0776    8.7437 O.3     1  UNL1       -0.3508
     22 C          67.7434   94.4749    8.9122 C.3     1  UNL1        0.1595
     23 C          67.0675   94.8750   10.1902 C.3     1  UNL1        0.1047
     24 S          63.4069   83.4222   14.4317 S.3     1  UNL1       -0.0470
     25 C          63.7819   83.3238   12.9827 C.ar    1  UNL1        0.2172
     26 N          64.8449   82.4369   12.4052 N.ar    1  UNL1       -0.1200
     27 N          64.8798   82.6600   10.9224 N.ar    1  UNL1       -0.1264
     28 C          63.8383   83.6849   10.5833 C.ar    1  UNL1        0.1873
     29 C          63.4201   84.2977    9.2796 C.ar    1  UNL1        0.0436
     30 C          62.3235   85.3206    9.2491 C.ar    1  UNL1        0.0390
     31 C          61.6450   85.7309   10.5225 C.ar    1  UNL1        0.1488
     32 N          62.0632   85.1182   11.8262 N.ar    1  UNL1       -0.1471
     33 N          63.1598   84.0952   11.8566 N.ar    1  UNL1       -0.1847
     34 N          60.5484   86.7538   10.4921 N.pl3   1  UNL1       -0.3182
     35 H          59.6138   86.4700   10.3686 H       1  UNL1        0.1482
     36 C          60.8756   88.2091   10.6497 C.3     1  UNL1        0.0754
     37 C          59.8631   89.1460   11.2389 C.3     1  UNL1        0.0517
     38 C          60.1904   90.6013   11.3965 C.3     1  UNL1        0.1439
     39 O          61.5301   91.1199   10.9651 O.3     1  UNL1       -0.3537
     40 C          62.5427   90.1830   10.3759 C.3     1  UNL1        0.1439
     41 C          62.2154   88.7277   10.2182 C.3     1  UNL1        0.0517
@<TRIPOS>BOND
     1    10    11    2
     2    11    12   am
     3    12    16    1
     4    16    17    1
     5    17    18    1
     6    18    19    1
     7    19    20    1
     8    20    21    1
     9    21    22    1
    10    22    23    1
    11    11    13   am
    12    13     1    1
    13     1     2   ar
    14     2     3   ar
    15     3     4   ar
    16     4     5   ar
    17     5     6   ar
    18     6    24    1
    19    24    25    1
    20    25    26   ar
    21    26    27   ar
    22    27    28   ar
    23    28    29   ar
    24    29    30   ar
    25    30    31   ar
    26    31    34    1
    27    34    36    1
    28    36    37    1
    29    37    38    1
    30    38    39    1
    31    39    40    1
    32    40    41    1
    33    31    32   ar
    34    32    33   ar
    35     6     7   ar
    36     7     8   ar
    37     8     9   ar
    38    23    18    1
    39     9     1   ar
    40     8     3   ar
    41    33    25   ar
    42    33    28   ar
    43    41    36    1
    44    12    14    1
    45    13    15    1
    46    34    35    1
@<TRIPOS>MOLECULE
*****
 41 46 0 0 0
SMALL
GASTEIGER

@<TRIPOS>ATOM
      1 C          60.9043   86.1494    8.8349 C.ar    1  UNL1        0.1667
      2 N          61.9894   85.1709    8.4958 N.ar    1  UNL1       -0.2239
      3 C          62.7043   84.8131    9.7650 C.ar    1  UNL1        0.0893
      4 C          63.8580   83.8956   10.0427 C.ar    1  UNL1        0.0202
      5 C          64.3683   83.7354   11.4441 C.ar    1  UNL1        0.0081
      6 C          63.7250   84.4928   12.5677 C.ar    1  UNL1        0.0329
      7 C          62.5714   85.4104   12.2900 C.ar    1  UNL1        0.0146
      8 C          62.0610   85.5705   10.8886 C.ar    1  UNL1        0.0502
      9 S          60.9485   86.3963   10.3138 S.2     1  UNL1       -0.0513
     10 O          60.7295   89.1353    8.6038 O.2     1  UNL1       -0.2524
     11 C          59.8561   88.2645    7.7499 C.2     1  UNL1        0.3059
     12 N          58.8954   88.8868    6.7804 N.am    1  UNL1       -0.2872
     13 N          59.9436   86.7716    7.8655 N.am    1  UNL1       -0.2485
     14 H          58.3222   88.3153    6.2200 H       1  UNL1        0.1510
     15 H          59.3704   86.2001    7.3050 H       1  UNL1        0.1583
     16 C          58.8080   90.3798    6.6648 C.3     1  UNL1        0.1082
     17 C          58.4881   91.0122    5.3429 C.3     1  UNL1        0.0938
     18 N          59.5943   91.5279    4.4708 N.3     1  UNL1       -0.2670
     19 C          60.9846   90.9859    4.6238 C.3     1  UNL1        0.1047
     20 C          62.0908   91.5015    3.7518 C.3     1  UNL1        0.1595
     21 O          61.8067   92.5591    2.7267 O.3     1  UNL1       -0.3508
     22 C          60.4165   93.1011    2.5737 C.3     1  UNL1        0.1595
     23 C          59.3102   92.5855    3.4458 C.3     1  UNL1        0.1047
     24 S          64.2354   84.3326   13.9691 S.3     1  UNL1       -0.0470
     25 C          63.5857   85.0823   15.0942 C.ar    1  UNL1        0.2172
     26 N          62.7466   84.4836   16.1840 N.ar    1  UNL1       -0.1200
     27 N          62.3033   85.5936   17.0904 N.ar    1  UNL1       -0.1264
     28 C          62.8684   86.8782   16.5608 C.ar    1  UNL1        0.1873
     29 C          62.7637   88.2949   17.0424 C.ar    1  UNL1        0.0436
     30 C          63.4515   89.3955   16.2906 C.ar    1  UNL1        0.0390
     31 C          64.2441   89.0795   15.0568 C.ar    1  UNL1        0.1488
     32 N          64.3488   87.6629   14.5751 N.ar    1  UNL1       -0.1471
     33 N          63.6609   86.5621   15.3271 N.ar    1  UNL1       -0.1847
     34 N          64.9318   90.1801   14.3049 N.pl3   1  UNL1       -0.3182
     35 H          65.7412   90.5993   14.6769 H       1  UNL1        0.1482
     36 C          64.3865   90.6421   12.9861 C.3     1  UNL1        0.0754
     37 C          65.0574   91.7624   12.2481 C.3     1  UNL1        0.0517
     38 C          64.5121   92.2244   10.9293 C.3     1  UNL1        0.1439
     39 O          63.2958   91.5661   10.3485 O.3     1  UNL1       -0.3537
     40 C          62.6248   90.4458   11.0865 C.3     1  UNL1        0.1439
     41 C          63.1702   89.9838   12.4053 C.3     1  UNL1        0.0517
@<TRIPOS>BOND
     1    10    11    2
     2    11    12   am
     3    12    16    1
     4    16    17    1
     5    17    18    1
     6    18    19    1
     7    19    20    1
     8    20    21    1
     9    21    22    1
    10    22    23    1
    11    11    13   am
    12    13     1    1
    13     1     2   ar
    14     2     3   ar
    15     3     4   ar
    16     4     5   ar
    17     5     6   ar
    18     6    24    1
    19    24    25    1
    20    25    26   ar
    21    26    27   ar
    22    27    28   ar
    23    28    29   ar
    24    29    30   ar
    25    30    31   ar
    26    31    34    1
    27    34    36    1
    28    36    37    1
    29    37    38    1
    30    38    39    1
    31    39    40    1
    32    40    41    1
    33    31    32   ar
    34    32    33   ar
    35     6     7   ar
    36     7     8   ar
    37     8     9   ar
    38    23    18    1
    39     9     1   ar
    40     8     3   ar
    41    33    25   ar
    42    33    28   ar
    43    41    36    1
    44    12    14    1
    45    13    15    1
    46    34    35    1
@<TRIPOS>MOLECULE
*****
 41 46 0 0 0
SMALL
GASTEIGER

@<TRIPOS>ATOM
      1 C          64.4125   89.9561   15.5792 C.ar    1  UNL1        0.1667
      2 N          63.4314   89.6148   16.6614 N.ar    1  UNL1       -0.2239
      3 C          63.1514   88.1431   16.5860 C.ar    1  UNL1        0.0893
      4 C          62.2651   87.2472   17.3994 C.ar    1  UNL1        0.0202
      5 C          62.1867   85.7828   17.0840 C.ar    1  UNL1        0.0081
      6 C          62.9947   85.2145   15.9552 C.ar    1  UNL1        0.0329
      7 C          63.8810   86.1104   15.1418 C.ar    1  UNL1        0.0146
      8 C          63.9593   87.5748   15.4572 C.ar    1  UNL1        0.0502
      9 S          64.7387   88.6952   14.8350 S.2     1  UNL1       -0.0513
     10 O          64.9380   90.7948   12.7472 O.2     1  UNL1       -0.2524
     11 C          65.2322   91.7382   13.8757 C.2     1  UNL1        0.3059
     12 N          65.7892   93.1010   13.5882 N.am    1  UNL1       -0.2872
     13 N          64.9694   91.3188   15.2917 N.am    1  UNL1       -0.2485
     14 H          65.9823   93.7202   14.3289 H       1  UNL1        0.1510
     15 H          65.1625   91.9380   16.0324 H       1  UNL1        0.1583
     16 C          66.0520   93.5204   12.1722 C.3     1  UNL1        0.1082
     17 C          66.0040   94.9724   11.7988 C.3     1  UNL1        0.0938
     18 N          66.1225   95.3813   10.3605 N.3     1  UNL1       -0.2670
     19 C          65.2200   96.4434    9.8060 C.3     1  UNL1        0.1047
     20 C          65.3385   96.8523    8.3677 C.3     1  UNL1        0.1595
     21 O          66.3595   96.1992    7.4839 O.3     1  UNL1       -0.3508
     22 C          67.2619   95.1371    8.0384 C.3     1  UNL1        0.1595
     23 C          67.1435   94.7281    9.4768 C.3     1  UNL1        0.1047
     24 S          62.9163   83.7500   15.6398 S.3     1  UNL1       -0.0470
     25 C          63.2546   83.2602   14.2630 C.ar    1  UNL1        0.2172
     26 N          63.8571   81.9290   13.9241 N.ar    1  UNL1       -0.1200
     27 N          64.0247   81.8616   12.4350 N.ar    1  UNL1       -0.1264
     28 C          63.5257   83.1512   11.8536 C.ar    1  UNL1        0.1873
     29 C          63.4433   83.6502   10.4414 C.ar    1  UNL1        0.0436
     30 C          62.8849   85.0133   10.1589 C.ar    1  UNL1        0.0390
     31 C          62.4090   85.8778   11.2887 C.ar    1  UNL1        0.1488
     32 N          62.4914   85.3788   12.7009 N.ar    1  UNL1       -0.1471
     33 N          63.0498   84.0156   12.9834 N.ar    1  UNL1       -0.1847
     34 N          61.8506   87.2409   11.0063 N.pl3   1  UNL1       -0.3182
     35 H          62.0502   87.9900   11.6131 H       1  UNL1        0.1482
     36 C          60.9882   87.4629    9.7993 C.3     1  UNL1        0.0754
     37 C          60.4492   86.2891    9.0365 C.3     1  UNL1        0.0517
     38 C          59.5868   86.5110    7.8295 C.3     1  UNL1        0.1439
     39 O          59.2632   87.9066    7.3851 O.3     1  UNL1       -0.3537
     40 C          59.8022   89.0805    8.1479 C.3     1  UNL1        0.1439
     41 C          60.6646   88.8586    9.3549 C.3     1  UNL1        0.0517
@<TRIPOS>BOND
     1    10    11    2
     2    11    12   am
     3    12    16    1
     4    16    17    1
     5    17    18    1
     6    18    19    1
     7    19    20    1
     8    20    21    1
     9    21    22    1
    10    22    23    1
    11    11    13   am
    12    13     1    1
    13     1     2   ar
    14     2     3   ar
    15     3     4   ar
    16     4     5   ar
    17     5     6   ar
    18     6    24    1
    19    24    25    1
    20    25    26   ar
    21    26    27   ar
    22    27    28   ar
    23    28    29   ar
    24    29    30   ar
    25    30    31   ar
    26    31    34    1
    27    34    36    1
    28    36    37    1
    29    37    38    1
    30    38    39    1
    31    39    40    1
    32    40    41    1
    33    31    32   ar
    34    32    33   ar
    35     6     7   ar
    36     7     8   ar
    37     8     9   ar
    38    23    18    1
    39     9     1   ar
    40     8     3   ar
    41    33    25   ar
    42    33    28   ar
    43    41    36    1
    44    12    14    1
    45    13    15    1
    46    34    35    1
@<TRIPOS>MOLECULE
*****
 41 46 0 0 0
SMALL
GASTEIGER

@<TRIPOS>ATOM
      1 C          59.3919   88.5587    7.7624 C.ar    1  UNL1        0.1667
      2 N          60.1169   89.0122    8.9947 N.ar    1  UNL1       -0.2239
      3 C          61.0095   87.8941    9.4453 C.ar    1  UNL1        0.0893
      4 C          61.9578   87.7703   10.6009 C.ar    1  UNL1        0.0202
      5 C          62.7327   86.5019   10.8026 C.ar    1  UNL1        0.0081
      6 C          62.5594   85.3574    9.8486 C.ar    1  UNL1        0.0329
      7 C          61.6112   85.4812    8.6930 C.ar    1  UNL1        0.0146
      8 C          60.8362   86.7495    8.4913 C.ar    1  UNL1        0.0502
      9 S          59.8365   87.1603    7.4513 S.2     1  UNL1       -0.0513
     10 O          60.3266   90.3643    5.5564 O.2     1  UNL1       -0.2524
     11 C          58.8643   90.2653    5.8758 C.2     1  UNL1        0.3059
     12 N          57.8694   91.0691    5.0921 N.am    1  UNL1       -0.2872
     13 N          58.3970   89.3625    6.9787 N.am    1  UNL1       -0.2485
     14 H          56.9097   91.0041    5.3017 H       1  UNL1        0.1510
     15 H          57.4372   89.2975    7.1883 H       1  UNL1        0.1583
     16 C          58.3369   91.9719    3.9891 C.3     1  UNL1        0.1082
     17 C          59.6709   92.6503    4.0897 C.3     1  UNL1        0.0938
     18 N          60.5260   92.8083    2.8676 N.3     1  UNL1       -0.2670
     19 C          61.9574   92.3601    2.8906 C.3     1  UNL1        0.1047
     20 C          62.8125   92.5181    1.6685 C.3     1  UNL1        0.1595
     21 O          62.2364   93.1244    0.4233 O.3     1  UNL1       -0.3508
     22 C          60.8052   93.5726    0.4002 C.3     1  UNL1        0.1595
     23 C          59.9499   93.4146    1.6224 C.3     1  UNL1        0.1047
     24 S          63.3344   84.0890   10.0504 S.3     1  UNL1       -0.0470
     25 C          63.0931   83.2484   11.2690 C.ar    1  UNL1        0.2172
     26 N          62.4685   81.8847   11.2899 N.ar    1  UNL1       -0.1200
     27 N          62.4234   81.4174   12.7145 N.ar    1  UNL1       -0.1264
     28 C          63.0200   82.4922   13.5740 C.ar    1  UNL1        0.1873
     29 C          63.2399   82.5867   15.0548 C.ar    1  UNL1        0.0436
     30 C          63.8736   83.8127   15.6423 C.ar    1  UNL1        0.0390
     31 C          64.2876   84.9444   14.7489 C.ar    1  UNL1        0.1488
     32 N          64.0677   84.8499   13.2681 N.ar    1  UNL1       -0.1471
     33 N          63.4339   83.6238   12.6806 N.ar    1  UNL1       -0.1847
     34 N          64.9213   86.1705   15.3362 N.pl3   1  UNL1       -0.3182
     35 H          65.8136   86.1140   15.7483 H       1  UNL1        0.1482
     36 C          64.1955   87.4826   15.2958 C.3     1  UNL1        0.0754
     37 C          64.2398   88.3262   14.0564 C.3     1  UNL1        0.0517
     38 C          63.5140   89.6383   14.0159 C.3     1  UNL1        0.1439
     39 O          62.7440   90.1068   15.2148 O.3     1  UNL1       -0.3537
     40 C          62.6996   89.2631   16.4543 C.3     1  UNL1        0.1439
     41 C          63.4254   87.9511   16.4948 C.3     1  UNL1        0.0517
@<TRIPOS>BOND
     1    10    11    2
     2    11    12   am
     3    12    16    1
     4    16    17    1
     5    17    18    1
     6    18    19    1
     7    19    20    1
     8    20    21    1
     9    21    22    1
    10    22    23    1
    11    11    13   am
    12    13     1    1
    13     1     2   ar
    14     2     3   ar
    15     3     4   ar
    16     4     5   ar
    17     5     6   ar
    18     6    24    1
    19    24    25    1
    20    25    26   ar
    21    26    27   ar
    22    27    28   ar
    23    28    29   ar
    24    29    30   ar
    25    30    31   ar
    26    31    34    1
    27    34    36    1
    28    36    37    1
    29    37    38    1
    30    38    39    1
    31    39    40    1
    32    40    41    1
    33    31    32   ar
    34    32    33   ar
    35     6     7   ar
    36     7     8   ar
    37     8     9   ar
    38    23    18    1
    39     9     1   ar
    40     8     3   ar
    41    33    25   ar
    42    33    28   ar
    43    41    36    1
    44    12    14    1
    45    13    15    1
    46    34    35    1
@<TRIPOS>MOLECULE
*****
 41 46 0 0 0
SMALL
GASTEIGER

@<TRIPOS>ATOM
      1 C          59.8605   87.6205    8.2496 C.ar    1  UNL1        0.1667
      2 N          60.7144   86.7677    7.3589 N.ar    1  UNL1       -0.2239
      3 C          61.6121   85.9406    8.2307 C.ar    1  UNL1        0.0893
      4 C          62.6632   84.9205    7.9074 C.ar    1  UNL1        0.0202
      5 C          63.4153   84.2421    9.0138 C.ar    1  UNL1        0.0081
      6 C          63.1163   84.5839   10.4434 C.ar    1  UNL1        0.0329
      7 C          62.0652   85.6040   10.7667 C.ar    1  UNL1        0.0146
      8 C          61.3131   86.2823    9.6603 C.ar    1  UNL1        0.0502
      9 S          60.2306   87.3206    9.6720 S.2     1  UNL1       -0.0513
     10 O          60.3012   89.2347    5.7596 O.2     1  UNL1       -0.2524
     11 C          59.0397   89.4082    6.5525 C.2     1  UNL1        0.3059
     12 N          57.9986   90.3889    6.1003 N.am    1  UNL1       -0.2872
     13 N          58.8194   88.6012    7.7975 N.am    1  UNL1       -0.2485
     14 H          57.1707   90.5028    6.6207 H       1  UNL1        0.1510
     15 H          57.9915   88.7151    8.3178 H       1  UNL1        0.1583
     16 C          58.2190   91.1960    4.8552 C.3     1  UNL1        0.1082
     17 C          59.2841   92.2518    4.8246 C.3     1  UNL1        0.0938
     18 N          60.1900   92.3689    3.6349 N.3     1  UNL1       -0.2670
     19 C          61.6120   91.8998    3.7258 C.3     1  UNL1        0.1047
     20 C          62.5179   92.0170    2.5361 C.3     1  UNL1        0.1595
     21 O          62.0020   92.6031    1.2554 O.3     1  UNL1       -0.3508
     22 C          60.5802   93.0722    1.1644 C.3     1  UNL1        0.1595
     23 C          59.6741   92.9551    2.3541 C.3     1  UNL1        0.1047
     24 S          63.8685   83.9054   11.5499 S.3     1  UNL1       -0.0470
     25 C          63.2870   83.8560   12.9317 C.ar    1  UNL1        0.2172
     26 N          62.5239   82.7099   13.5267 N.ar    1  UNL1       -0.1200
     27 N          62.1318   83.0896   14.9239 N.ar    1  UNL1       -0.1264
     28 C          62.6527   84.4705   15.1923 C.ar    1  UNL1        0.1873
     29 C          62.5691   85.3578   16.3988 C.ar    1  UNL1        0.0436
     30 C          63.1993   86.7186   16.3742 C.ar    1  UNL1        0.0390
     31 C          63.9133   87.1924   15.1430 C.ar    1  UNL1        0.1488
     32 N          63.9969   86.3051   13.9364 N.ar    1  UNL1       -0.1471
     33 N          63.3666   84.9441   13.9611 N.ar    1  UNL1       -0.1847
     34 N          64.5436   88.5532   15.1183 N.pl3   1  UNL1       -0.3182
     35 H          65.1308   88.8371   15.8557 H       1  UNL1        0.1482
     36 C          64.2792   89.4815   13.9701 C.3     1  UNL1        0.0754
     37 C          64.9680   90.8126   13.9079 C.3     1  UNL1        0.0517
     38 C          64.7036   91.7409   12.7597 C.3     1  UNL1        0.1439
     39 O          63.7505   91.3382   11.6737 O.3     1  UNL1       -0.3537
     40 C          63.0617   90.0071   11.7359 C.3     1  UNL1        0.1439
     41 C          63.3260   89.0788   12.8841 C.3     1  UNL1        0.0517
@<TRIPOS>BOND
     1    10    11    2
     2    11    12   am
     3    12    16    1
     4    16    17    1
     5    17    18    1
     6    18    19    1
     7    19    20    1
     8    20    21    1
     9    21    22    1
    10    22    23    1
    11    11    13   am
    12    13     1    1
    13     1     2   ar
    14     2     3   ar
    15     3     4   ar
    16     4     5   ar
    17     5     6   ar
    18     6    24    1
    19    24    25    1
    20    25    26   ar
    21    26    27   ar
    22    27    28   ar
    23    28    29   ar
    24    29    30   ar
    25    30    31   ar
    26    31    34    1
    27    34    36    1
    28    36    37    1
    29    37    38    1
    30    38    39    1
    31    39    40    1
    32    40    41    1
    33    31    32   ar
    34    32    33   ar
    35     6     7   ar
    36     7     8   ar
    37     8     9   ar
    38    23    18    1
    39     9     1   ar
    40     8     3   ar
    41    33    25   ar
    42    33    28   ar
    43    41    36    1
    44    12    14    1
    45    13    15    1
    46    34    35    1
@<TRIPOS>MOLECULE
*****
 41 46 0 0 0
SMALL
GASTEIGER

@<TRIPOS>ATOM
      1 C          59.6128   88.0222    8.1370 C.ar    1  UNL1        0.1667
      2 N          60.7563   87.3551    7.4319 N.ar    1  UNL1       -0.2239
      3 C          61.4748   86.4927    8.4269 C.ar    1  UNL1        0.0893
      4 C          62.6756   85.6026    8.3014 C.ar    1  UNL1        0.0202
      5 C          63.1769   84.8467    9.4961 C.ar    1  UNL1        0.0081
      6 C          62.4774   84.9809   10.8162 C.ar    1  UNL1        0.0329
      7 C          61.2767   85.8710   10.9417 C.ar    1  UNL1        0.0146
      8 C          60.7754   86.6269    9.7470 C.ar    1  UNL1        0.0502
      9 S          59.6246   87.5722    9.5678 S.2     1  UNL1       -0.0513
     10 O          60.3765   89.5965    5.7001 O.2     1  UNL1       -0.2524
     11 C          59.0119   89.7597    6.3012 C.2     1  UNL1        0.3059
     12 N          58.0292   90.7101    5.6839 N.am    1  UNL1       -0.2872
     13 N          58.6301   88.9726    7.5197 N.am    1  UNL1       -0.2485
     14 H          57.1335   90.8172    6.0784 H       1  UNL1        0.1510
     15 H          57.7345   89.0797    7.9142 H       1  UNL1        0.1583
     16 C          58.4110   91.4972    4.4654 C.3     1  UNL1        0.1082
     17 C          59.5349   92.4882    4.5346 C.3     1  UNL1        0.0938
     18 N          60.4749   92.6382    3.3754 N.3     1  UNL1       -0.2670
     19 C          60.0933   93.4976    2.2066 C.3     1  UNL1        0.1047
     20 C          61.0333   93.6476    1.0474 C.3     1  UNL1        0.1595
     21 O          62.3550   92.9383    1.0568 O.3     1  UNL1       -0.3508
     22 C          62.7366   92.0790    2.2255 C.3     1  UNL1        0.1595
     23 C          61.7966   91.9290    3.3848 C.3     1  UNL1        0.1047
     24 S          62.9788   84.2249   12.0109 S.3     1  UNL1       -0.0470
     25 C          63.4720   84.9689   13.2164 C.ar    1  UNL1        0.2172
     26 N          63.9274   84.3541   14.5066 N.ar    1  UNL1       -0.1200
     27 N          64.3333   85.4635   15.4309 N.ar    1  UNL1       -0.1264
     28 C          64.1288   86.7640   14.7119 C.ar    1  UNL1        0.1873
     29 C          64.3584   88.1871   15.1267 C.ar    1  UNL1        0.0436
     30 C          64.0559   89.3045   14.1729 C.ar    1  UNL1        0.0390
     31 C          63.5236   88.9988   12.8042 C.ar    1  UNL1        0.1488
     32 N          63.2939   87.5757   12.3894 N.ar    1  UNL1       -0.1471
     33 N          63.5965   86.4583   13.3433 N.ar    1  UNL1       -0.1847
     34 N          63.2210   90.1162   11.8503 N.pl3   1  UNL1       -0.3182
     35 H          62.4196   90.0732   11.2801 H       1  UNL1        0.1482
     36 C          64.1394   91.2990   11.7652 C.3     1  UNL1        0.0754
     37 C          64.3241   92.0126   10.4588 C.3     1  UNL1        0.0517
     38 C          65.2426   93.1955   10.3736 C.3     1  UNL1        0.1439
     39 O          65.9763   93.6649   11.5947 O.3     1  UNL1       -0.3537
     40 C          65.7916   92.9513   12.9012 C.3     1  UNL1        0.1439
     41 C          64.8732   91.7684   12.9864 C.3     1  UNL1        0.0517
@<TRIPOS>BOND
     1    10    11    2
     2    11    12   am
     3    12    16    1
     4    16    17    1
     5    17    18    1
     6    18    19    1
     7    19    20    1
     8    20    21    1
     9    21    22    1
    10    22    23    1
    11    11    13   am
    12    13     1    1
    13     1     2   ar
    14     2     3   ar
    15     3     4   ar
    16     4     5   ar
    17     5     6   ar
    18     6    24    1
    19    24    25    1
    20    25    26   ar
    21    26    27   ar
    22    27    28   ar
    23    28    29   ar
    24    29    30   ar
    25    30    31   ar
    26    31    34    1
    27    34    36    1
    28    36    37    1
    29    37    38    1
    30    38    39    1
    31    39    40    1
    32    40    41    1
    33    31    32   ar
    34    32    33   ar
    35     6     7   ar
    36     7     8   ar
    37     8     9   ar
    38    23    18    1
    39     9     1   ar
    40     8     3   ar
    41    33    25   ar
    42    33    28   ar
    43    41    36    1
    44    12    14    1
    45    13    15    1
    46    34    35    1
@<TRIPOS>MOLECULE
*****
 41 46 0 0 0
SMALL
GASTEIGER

@<TRIPOS>ATOM
      1 C          62.1407   85.1027    9.6739 C.ar    1  UNL1        0.1667
      2 N          63.0820   83.9471    9.8429 N.ar    1  UNL1       -0.2239
      3 C          63.5325   83.9214   11.2734 C.ar    1  UNL1        0.0893
      4 C          64.4607   83.0075   12.0171 C.ar    1  UNL1        0.0202
      5 C          64.7259   83.2334   13.4761 C.ar    1  UNL1        0.0081
      6 C          64.0630   84.3731   14.1913 C.ar    1  UNL1        0.0329
      7 C          63.1348   85.2870   13.4476 C.ar    1  UNL1        0.0146
      8 C          62.8695   85.0612   11.9886 C.ar    1  UNL1        0.0502
      9 S          62.0094   85.7912   11.0001 S.2     1  UNL1       -0.0513
     10 O          60.2828   87.4580    9.6471 O.2     1  UNL1       -0.2524
     11 C          60.5227   86.6776    8.3888 C.2     1  UNL1        0.3059
     12 N          59.8336   87.0749    7.1170 N.am    1  UNL1       -0.2872
     13 N          61.4516   85.5000    8.4022 N.am    1  UNL1       -0.2485
     14 H          59.9911   86.5627    6.2911 H       1  UNL1        0.1510
     15 H          61.6091   84.9878    7.5763 H       1  UNL1        0.1583
     16 C          58.9047   88.2526    7.1036 C.3     1  UNL1        0.1082
     17 C          59.4602   89.6459    7.0951 C.3     1  UNL1        0.0938
     18 N          59.1760   90.5596    5.9400 N.3     1  UNL1       -0.2670
     19 C          60.3084   91.1276    5.1368 C.3     1  UNL1        0.1047
     20 C          60.0243   92.0413    3.9816 C.3     1  UNL1        0.1595
     21 O          58.6077   92.3870    3.6296 O.3     1  UNL1       -0.3508
     22 C          57.4754   91.8190    4.4327 C.3     1  UNL1        0.1595
     23 C          57.7595   90.9053    5.5879 C.3     1  UNL1        0.1047
     24 S          64.3283   84.5989   15.6504 S.3     1  UNL1       -0.0470
     25 C          63.6613   85.7354   16.3668 C.ar    1  UNL1        0.2172
     26 N          62.8163   85.6251   17.6013 N.ar    1  UNL1       -0.1200
     27 N          62.3551   87.0034   17.9720 N.ar    1  UNL1       -0.1264
     28 C          62.9150   87.9656   16.9667 C.ar    1  UNL1        0.1873
     29 C          62.7941   89.4541   16.8264 C.ar    1  UNL1        0.0436
     30 C          63.4804   90.1590   15.6942 C.ar    1  UNL1        0.0390
     31 C          64.2877   89.3754   14.7021 C.ar    1  UNL1        0.1488
     32 N          64.4087   87.8869   14.8423 N.ar    1  UNL1       -0.1471
     33 N          63.7223   87.1820   15.9746 N.ar    1  UNL1       -0.1847
     34 N          64.9740   90.0802   13.5698 N.pl3   1  UNL1       -0.3182
     35 H          65.0066   89.6639   12.6783 H       1  UNL1        0.1482
     36 C          65.6108   91.4194   13.7959 C.3     1  UNL1        0.0754
     37 C          65.5397   92.4731   12.7306 C.3     1  UNL1        0.0517
     38 C          66.1764   93.8123   12.9567 C.3     1  UNL1        0.1439
     39 O          66.8843   94.0979   14.2479 O.3     1  UNL1       -0.3537
     40 C          66.9554   93.0442   15.3132 C.3     1  UNL1        0.1439
     41 C          66.3187   91.7051   15.0872 C.3     1  UNL1        0.0517
@<TRIPOS>BOND
     1    10    11    2
     2    11    12   am
     3    12    16    1
     4    16    17    1
     5    17    18    1
     6    18    19    1
     7    19    20    1
     8    20    21    1
     9    21    22    1
    10    22    23    1
    11    11    13   am
    12    13     1    1
    13     1     2   ar
    14     2     3   ar
    15     3     4   ar
    16     4     5   ar
    17     5     6   ar
    18     6    24    1
    19    24    25    1
    20    25    26   ar
    21    26    27   ar
    22    27    28   ar
    23    28    29   ar
    24    29    30   ar
    25    30    31   ar
    26    31    34    1
    27    34    36    1
    28    36    37    1
    29    37    38    1
    30    38    39    1
    31    39    40    1
    32    40    41    1
    33    31    32   ar
    34    32    33   ar
    35     6     7   ar
    36     7     8   ar
    37     8     9   ar
    38    23    18    1
    39     9     1   ar
    40     8     3   ar
    41    33    25   ar
    42    33    28   ar
    43    41    36    1
    44    12    14    1
    45    13    15    1
    46    34    35    1
@<TRIPOS>MOLECULE
*****
 41 46 0 0 0
SMALL
GASTEIGER

@<TRIPOS>ATOM
      1 C          59.7643   88.8242    8.2247 C.ar    1  UNL1        0.1667
      2 N          60.2816   87.4989    8.7000 N.ar    1  UNL1       -0.2239
      3 C          61.2482   87.7528    9.8186 C.ar    1  UNL1        0.0893
      4 C          62.0658   86.8258   10.6684 C.ar    1  UNL1        0.0202
      5 C          62.9635   87.3810   11.7341 C.ar    1  UNL1        0.0081
      6 C          63.0436   88.8632   11.9501 C.ar    1  UNL1        0.0329
      7 C          62.2260   89.7902   11.1003 C.ar    1  UNL1        0.0146
      8 C          61.3283   89.2350   10.0346 C.ar    1  UNL1        0.0502
      9 S          60.4112   89.8972    9.0495 S.2     1  UNL1       -0.0513
     10 O          60.0926   91.1397    6.3456 O.2     1  UNL1       -0.2524
     11 C          58.9381   90.1966    6.1792 C.2     1  UNL1        0.3059
     12 N          57.9477   90.4112    5.0732 N.am    1  UNL1       -0.2872
     13 N          58.7739   89.0389    7.1187 N.am    1  UNL1       -0.2485
     14 H          57.1900   89.7923    4.9640 H       1  UNL1        0.1510
     15 H          58.0162   88.4199    7.0095 H       1  UNL1        0.1583
     16 C          58.1119   91.5690    4.1337 C.3     1  UNL1        0.1082
     17 C          59.3189   92.4537    4.2374 C.3     1  UNL1        0.0938
     18 N          60.2357   92.6123    3.0609 N.3     1  UNL1       -0.2670
     19 C          61.6619   92.1567    3.1546 C.3     1  UNL1        0.1047
     20 C          62.5787   92.3154    1.9782 C.3     1  UNL1        0.1595
     21 O          62.0696   92.9296    0.7079 O.3     1  UNL1       -0.3508
     22 C          60.6436   93.3852    0.6142 C.3     1  UNL1        0.1595
     23 C          59.7266   93.2266    1.7907 C.3     1  UNL1        0.1047
     24 S          63.9414   89.4184   13.0159 S.3     1  UNL1       -0.0470
     25 C          63.5443   89.3170   14.4588 C.ar    1  UNL1        0.2172
     26 N          63.0781   90.4482   15.3266 N.ar    1  UNL1       -0.1200
     27 N          62.7893   89.8969   16.6914 N.ar    1  UNL1       -0.1264
     28 C          63.0770   88.4249   16.6670 C.ar    1  UNL1        0.1873
     29 C          62.9745   87.3645   17.7230 C.ar    1  UNL1        0.0436
     30 C          63.3384   85.9459   17.3993 C.ar    1  UNL1        0.0390
     31 C          63.8050   85.5874   16.0195 C.ar    1  UNL1        0.1488
     32 N          63.9076   86.6478   14.9635 N.ar    1  UNL1       -0.1471
     33 N          63.5436   88.0665   15.2872 N.ar    1  UNL1       -0.1847
     34 N          64.1690   84.1688   15.6957 N.pl3   1  UNL1       -0.3182
     35 H          64.7532   83.6597   16.3029 H       1  UNL1        0.1482
     36 C          63.6429   83.5259   14.4468 C.3     1  UNL1        0.0754
     37 C          62.5513   82.5007   14.5337 C.3     1  UNL1        0.0517
     38 C          62.0252   81.8577   13.2848 C.3     1  UNL1        0.1439
     39 O          62.5905   82.2398   11.9491 O.3     1  UNL1       -0.3537
     40 C          63.6821   83.2650   11.8621 C.3     1  UNL1        0.1439
     41 C          64.2082   83.9080   13.1110 C.3     1  UNL1        0.0517
@<TRIPOS>BOND
     1    10    11    2
     2    11    12   am
     3    12    16    1
     4    16    17    1
     5    17    18    1
     6    18    19    1
     7    19    20    1
     8    20    21    1
     9    21    22    1
    10    22    23    1
    11    11    13   am
    12    13     1    1
    13     1     2   ar
    14     2     3   ar
    15     3     4   ar
    16     4     5   ar
    17     5     6   ar
    18     6    24    1
    19    24    25    1
    20    25    26   ar
    21    26    27   ar
    22    27    28   ar
    23    28    29   ar
    24    29    30   ar
    25    30    31   ar
    26    31    34    1
    27    34    36    1
    28    36    37    1
    29    37    38    1
    30    38    39    1
    31    39    40    1
    32    40    41    1
    33    31    32   ar
    34    32    33   ar
    35     6     7   ar
    36     7     8   ar
    37     8     9   ar
    38    23    18    1
    39     9     1   ar
    40     8     3   ar
    41    33    25   ar
    42    33    28   ar
    43    41    36    1
    44    12    14    1
    45    13    15    1
    46    34    35    1
@<TRIPOS>MOLECULE
*****
 41 46 0 0 0
SMALL
GASTEIGER

@<TRIPOS>ATOM
      1 C          59.6075   89.5838    7.2453 C.ar    1  UNL1        0.1667
      2 N          60.6049   89.9845    8.2916 N.ar    1  UNL1       -0.2239
      3 C          60.9838   88.7566    9.0653 C.ar    1  UNL1        0.0893
      4 C          61.9251   88.5446   10.2137 C.ar    1  UNL1        0.0202
      5 C          62.1032   87.1729   10.7941 C.ar    1  UNL1        0.0081
      6 C          61.3401   86.0133   10.2259 C.ar    1  UNL1        0.0329
      7 C          60.3987   86.2253    9.0775 C.ar    1  UNL1        0.0146
      8 C          60.2206   87.5969    8.4972 C.ar    1  UNL1        0.0502
      9 S          59.3701   88.1082    7.3724 S.2     1  UNL1       -0.0513
     10 O          61.2865   91.0035    5.2044 O.2     1  UNL1       -0.2524
     11 C          59.8007   91.2080    5.2267 C.2     1  UNL1        0.3059
     12 N          59.1543   92.1223    4.2286 N.am    1  UNL1       -0.2872
     13 N          58.9612   90.4981    6.2472 N.am    1  UNL1       -0.2485
     14 H          58.1791   92.2565    4.2433 H       1  UNL1        0.1510
     15 H          57.9860   90.6323    6.2618 H       1  UNL1        0.1583
     16 C          59.9939   92.8322    3.2081 C.3     1  UNL1        0.1082
     17 C          59.4812   93.0136    1.8102 C.3     1  UNL1        0.0938
     18 N          60.4388   93.2976    0.6911 N.3     1  UNL1       -0.2670
     19 C          59.9928   93.1494   -0.7334 C.3     1  UNL1        0.1047
     20 C          60.9504   93.4333   -1.8525 C.3     1  UNL1        0.1595
     21 O          62.3540   93.8655   -1.5471 O.3     1  UNL1       -0.3508
     22 C          62.8000   94.0137   -0.1227 C.3     1  UNL1        0.1595
     23 C          61.8424   93.7297    0.9965 C.3     1  UNL1        0.1047
     24 S          61.5182   84.6416   10.8063 S.3     1  UNL1       -0.0470
     25 C          62.8507   84.2273   11.3566 C.ar    1  UNL1        0.2172
     26 N          63.7874   83.2303   10.7413 N.ar    1  UNL1       -0.1200
     27 N          64.9961   83.1241   11.6233 N.ar    1  UNL1       -0.1264
     28 C          64.8064   84.0556   12.7837 C.ar    1  UNL1        0.1873
     29 C          65.6696   84.3710   13.9691 C.ar    1  UNL1        0.0436
     30 C          65.2072   85.3682   14.9897 C.ar    1  UNL1        0.0390
     31 C          63.8812   86.0500   14.8249 C.ar    1  UNL1        0.1488
     32 N          63.0179   85.7346   13.6395 N.ar    1  UNL1       -0.1471
     33 N          63.4805   84.7374   12.6189 N.ar    1  UNL1       -0.1847
     34 N          63.4187   87.0472   15.8454 N.pl3   1  UNL1       -0.3182
     35 H          62.9426   86.7420   16.6514 H       1  UNL1        0.1482
     36 C          63.6814   88.5094   15.6382 C.3     1  UNL1        0.0754
     37 C          63.2381   89.5045   16.6693 C.3     1  UNL1        0.0517
     38 C          63.5008   90.9667   16.4620 C.3     1  UNL1        0.1439
     39 O          64.2067   91.4338   15.2237 O.3     1  UNL1       -0.3537
     40 C          64.6500   90.4387   14.1925 C.3     1  UNL1        0.1439
     41 C          64.3873   88.9765   14.3998 C.3     1  UNL1        0.0517
@<TRIPOS>BOND
     1    10    11    2
     2    11    12   am
     3    12    16    1
     4    16    17    1
     5    17    18    1
     6    18    19    1
     7    19    20    1
     8    20    21    1
     9    21    22    1
    10    22    23    1
    11    11    13   am
    12    13     1    1
    13     1     2   ar
    14     2     3   ar
    15     3     4   ar
    16     4     5   ar
    17     5     6   ar
    18     6    24    1
    19    24    25    1
    20    25    26   ar
    21    26    27   ar
    22    27    28   ar
    23    28    29   ar
    24    29    30   ar
    25    30    31   ar
    26    31    34    1
    27    34    36    1
    28    36    37    1
    29    37    38    1
    30    38    39    1
    31    39    40    1
    32    40    41    1
    33    31    32   ar
    34    32    33   ar
    35     6     7   ar
    36     7     8   ar
    37     8     9   ar
    38    23    18    1
    39     9     1   ar
    40     8     3   ar
    41    33    25   ar
    42    33    28   ar
    43    41    36    1
    44    12    14    1
    45    13    15    1
    46    34    35    1
