@<TRIPOS>MOLECULE
*****
 18 18 0 0 0
SMALL
GASTEIGER

@<TRIPOS>ATOM
      1 C          63.1655   82.8551   12.6692 C.3     1  UNL1        0.0261
      2 C          63.1312   84.3505   12.5570 C.2     1  UNL1       -0.0454
      3 C          62.3851   84.6625   11.2937 C.2     1  UNL1       -0.0342
      4 C          61.8565   85.7181   10.3683 C.3     1  UNL1        0.0294
      5 C          61.7133   87.1821   10.0745 C.3     1  UNL1        0.0227
      6 C          61.1341   88.1316    9.0680 C.3     1  UNL1        0.0047
      7 C          61.0467   86.3955    8.9849 C.3     1  UNL1        0.0047
      8 C          62.0010   88.5896   10.5056 C.2     1  UNL1       -0.0232
      9 C          62.6282   89.4940   11.5248 C.2     1  UNL1        0.0371
     10 C          63.3958   89.6079   12.8085 C.2     1  UNL1        0.1912
     11 O          63.5792   91.0748   13.0625 O.2     1  UNL1       -0.2869
     12 C          64.0601   88.8953   13.9491 C.2     1  UNL1        0.0151
     13 C          64.6177   89.9606   14.8458 C.3     1  UNL1        0.0341
     14 C          64.4101   87.5824   14.5845 C.2     1  UNL1        0.0018
     15 C          64.3348   86.0859   14.5128 C.3     1  UNL1        0.1363
     16 O          65.0472   85.5683   15.7272 O.3     1  UNL1       -0.3797
     17 C          63.8580   84.8812   13.7570 C.3     1  UNL1        0.0555
     18 H          65.3762   86.3150   16.2518 H       1  UNL1        0.2108
@<TRIPOS>BOND
     1     1     2    1
     2     2     3    2
     3     3     4    1
     4     4     5    1
     5     5     6    1
     6     5     7    1
     7     5     8    1
     8     8     9    2
     9     9    10    1
    10    10    11    2
    11    10    12    1
    12    12    13    1
    13    12    14    2
    14    14    15    1
    15    15    16    1
    16    15    17    1
    17    17     2    1
    18    16    18    1
@<TRIPOS>MOLECULE
*****
 18 18 0 0 0
SMALL
GASTEIGER

@<TRIPOS>ATOM
      1 C          64.7322   84.5477   15.3230 C.3     1  UNL1        0.0261
      2 C          64.1445   85.4681   14.2947 C.2     1  UNL1       -0.0454
      3 C          64.4788   86.8624   14.7353 C.2     1  UNL1       -0.0342
      4 C          64.3758   88.3327   14.4566 C.3     1  UNL1        0.0294
      5 C          63.8682   89.4122   13.5471 C.3     1  UNL1        0.0227
      6 C          63.8397   90.9035   13.3884 C.3     1  UNL1        0.0047
      7 C          64.6007   90.0418   14.6948 C.3     1  UNL1        0.0047
      8 C          63.1172   89.7581   12.2957 C.2     1  UNL1       -0.0232
      9 C          62.3611   89.2606   11.0994 C.2     1  UNL1        0.0371
     10 C          61.8401   88.0777   10.3383 C.2     1  UNL1        0.1912
     11 O          61.1294   88.6276    9.1373 O.2     1  UNL1       -0.2869
     12 C          61.7195   86.5849   10.2540 C.2     1  UNL1        0.0151
     13 C          60.9409   86.2937    9.0054 C.3     1  UNL1        0.0341
     14 C          62.0377   85.2563   10.8731 C.2     1  UNL1        0.0018
     15 C          62.6936   84.5135   11.9993 C.3     1  UNL1        0.1363
     16 O          62.4638   83.0551   11.7341 O.3     1  UNL1       -0.3797
     17 C          63.4790   84.5925   13.2748 C.3     1  UNL1        0.0555
     18 H          61.9564   82.9516   10.9139 H       1  UNL1        0.2108
@<TRIPOS>BOND
     1     1     2    1
     2     2     3    2
     3     3     4    1
     4     4     5    1
     5     5     6    1
     6     5     7    1
     7     5     8    1
     8     8     9    2
     9     9    10    1
    10    10    11    2
    11    10    12    1
    12    12    13    1
    13    12    14    2
    14    14    15    1
    15    15    16    1
    16    15    17    1
    17    17     2    1
    18    16    18    1
@<TRIPOS>MOLECULE
*****
 18 18 0 0 0
SMALL
GASTEIGER

@<TRIPOS>ATOM
      1 C          61.0111   86.0229    8.9556 C.3     1  UNL1        0.0261
      2 C          61.7503   86.5547   10.1476 C.2     1  UNL1       -0.0454
      3 C          62.1220   85.3637   10.9802 C.2     1  UNL1       -0.0342
      4 C          62.7922   84.8505   12.2202 C.3     1  UNL1        0.0294
      5 C          63.5481   85.1780   13.4738 C.3     1  UNL1        0.0227
      6 C          64.1814   84.5335   14.6711 C.3     1  UNL1        0.0047
      7 C          63.3608   83.6921   13.3878 C.3     1  UNL1        0.0047
      8 C          64.1496   86.2422   14.3429 C.2     1  UNL1       -0.0232
      9 C          64.4059   87.7053   14.5518 C.2     1  UNL1        0.0371
     10 C          64.2356   89.1028   14.0340 C.2     1  UNL1        0.1912
     11 O          64.8967   90.0067   15.0318 O.2     1  UNL1       -0.2869
     12 C          63.6926   89.9909   12.9539 C.2     1  UNL1        0.0151
     13 C          64.0479   91.3952   13.3432 C.3     1  UNL1        0.0341
     14 C          62.9495   90.0877   11.6546 C.2     1  UNL1        0.0018
     15 C          62.2421   89.3624   10.5484 C.3     1  UNL1        0.1363
     16 O          61.7801   90.4127    9.5822 O.3     1  UNL1       -0.3797
     17 C          61.7951   88.0453    9.9866 C.3     1  UNL1        0.0555
     18 H          62.0473   91.2879    9.9039 H       1  UNL1        0.2108
@<TRIPOS>BOND
     1     1     2    1
     2     2     3    2
     3     3     4    1
     4     4     5    1
     5     5     6    1
     6     5     7    1
     7     5     8    1
     8     8     9    2
     9     9    10    1
    10    10    11    2
    11    10    12    1
    12    12    13    1
    13    12    14    2
    14    14    15    1
    15    15    16    1
    16    15    17    1
    17    17     2    1
    18    16    18    1
@<TRIPOS>MOLECULE
*****
 18 18 0 0 0
SMALL
GASTEIGER

@<TRIPOS>ATOM
      1 C          64.7763   90.7117   14.6933 C.3     1  UNL1        0.0261
      2 C          64.1955   89.5834   13.8937 C.2     1  UNL1       -0.0454
      3 C          64.4908   88.3274   14.6587 C.2     1  UNL1       -0.0342
      4 C          64.3651   86.8344   14.7303 C.3     1  UNL1        0.0294
      5 C          63.8582   85.5784   14.0856 C.3     1  UNL1        0.0227
      6 C          63.8035   84.0921   14.2808 C.3     1  UNL1        0.0047
      7 C          64.5495   85.2264   15.3695 C.3     1  UNL1        0.0047
      8 C          63.1312   84.9581   12.9295 C.2     1  UNL1       -0.0232
      9 C          62.4147   85.1706   11.6288 C.2     1  UNL1        0.0371
     10 C          61.9364   86.1483   10.5967 C.2     1  UNL1        0.1912
     11 O          61.2444   85.3411    9.5387 O.2     1  UNL1       -0.2869
     12 C          61.8480   87.5809   10.1607 C.2     1  UNL1        0.0151
     13 C          61.1062   87.5808    8.8570 C.3     1  UNL1        0.0341
     14 C          62.1777   89.0133   10.4594 C.2     1  UNL1        0.0018
     15 C          62.8207   89.9911   11.3978 C.3     1  UNL1        0.1363
     16 O          62.6269   91.3492   10.7911 O.3     1  UNL1       -0.3797
     17 C          63.5729   90.2036   12.6781 C.3     1  UNL1        0.0555
     18 H          62.1418   91.2638    9.9554 H       1  UNL1        0.2108
@<TRIPOS>BOND
     1     1     2    1
     2     2     3    2
     3     3     4    1
     4     4     5    1
     5     5     6    1
     6     5     7    1
     7     5     8    1
     8     8     9    2
     9     9    10    1
    10    10    11    2
    11    10    12    1
    12    12    13    1
    13    12    14    2
    14    14    15    1
    15    15    16    1
    16    15    17    1
    17    17     2    1
    18    16    18    1
@<TRIPOS>MOLECULE
*****
 18 18 0 0 0
SMALL
GASTEIGER

@<TRIPOS>ATOM
      1 C          64.3312   89.8889   14.6250 C.3     1  UNL1        0.0261
      2 C          63.9341   88.6781   13.8337 C.2     1  UNL1       -0.0454
      3 C          63.2366   89.1854   12.6064 C.2     1  UNL1       -0.0342
      4 C          62.5368   88.8494   11.3229 C.3     1  UNL1        0.0294
      5 C          62.0569   87.7768   10.3906 C.3     1  UNL1        0.0227
      6 C          61.3412   87.5812    9.0870 C.3     1  UNL1        0.0047
      7 C          61.6964   89.1176    9.8229 C.3     1  UNL1        0.0047
      8 C          61.9493   86.3081   10.1056 C.2     1  UNL1       -0.0232
      9 C          62.2480   84.9095   10.5583 C.2     1  UNL1        0.0371
     10 C          62.8583   84.0253   11.6050 C.2     1  UNL1        0.1912
     11 O          62.6493   82.6144   11.1406 O.2     1  UNL1       -0.2869
     12 C          63.5865   83.9360   12.9134 C.2     1  UNL1        0.0151
     13 C          63.7877   82.4748   13.1862 C.3     1  UNL1        0.0341
     14 C          64.2012   84.6700   14.0680 C.2     1  UNL1        0.0018
     15 C          64.5074   85.9944   14.7024 C.3     1  UNL1        0.1363
     16 O          65.2275   85.6930   15.9833 O.3     1  UNL1       -0.3797
     17 C          64.4078   87.4886   14.6150 C.3     1  UNL1        0.0555
     18 H          65.3171   84.7326   16.0856 H       1  UNL1        0.2108
@<TRIPOS>BOND
     1     1     2    1
     2     2     3    2
     3     3     4    1
     4     4     5    1
     5     5     6    1
     6     5     7    1
     7     5     8    1
     8     8     9    2
     9     9    10    1
    10    10    11    2
    11    10    12    1
    12    12    13    1
    13    12    14    2
    14    14    15    1
    15    15    16    1
    16    15    17    1
    17    17     2    1
    18    16    18    1
@<TRIPOS>MOLECULE
*****
 18 18 0 0 0
SMALL
GASTEIGER

@<TRIPOS>ATOM
      1 C          61.2871   86.4677    8.4819 C.3     1  UNL1        0.0261
      2 C          61.9488   86.6336    9.8178 C.2     1  UNL1       -0.0454
      3 C          62.1047   88.1100   10.0318 C.2     1  UNL1       -0.0342
      4 C          62.5840   89.2112   10.9305 C.3     1  UNL1        0.0294
      5 C          63.2345   89.5875   12.2288 C.3     1  UNL1        0.0227
      6 C          63.6681   90.7804   13.0281 C.3     1  UNL1        0.0047
      7 C          62.9029   90.8360   11.4661 C.3     1  UNL1        0.0047
      8 C          63.8496   89.1194   13.5142 C.2     1  UNL1       -0.0232
      9 C          64.2342   87.9555   14.3789 C.2     1  UNL1        0.0371
     10 C          64.2660   86.4655   14.5481 C.2     1  UNL1        0.1912
     11 O          64.9099   86.2048   15.8776 O.2     1  UNL1       -0.2869
     12 C          63.9350   85.1222   13.9683 C.2     1  UNL1        0.0151
     13 C          64.3924   84.1047   14.9710 C.3     1  UNL1        0.0341
     14 C          63.3463   84.3523   12.8235 C.2     1  UNL1        0.0018
     15 C          62.6867   84.4002   11.4770 C.3     1  UNL1        0.1363
     16 O          62.4408   82.9758   11.0761 O.3     1  UNL1       -0.3797
     17 C          62.1658   85.2507   10.3566 C.3     1  UNL1        0.0555
     18 H          62.7628   82.3835   11.7734 H       1  UNL1        0.2108
@<TRIPOS>BOND
     1     1     2    1
     2     2     3    2
     3     3     4    1
     4     4     5    1
     5     5     6    1
     6     5     7    1
     7     5     8    1
     8     8     9    2
     9     9    10    1
    10    10    11    2
    11    10    12    1
    12    12    13    1
    13    12    14    2
    14    14    15    1
    15    15    16    1
    16    15    17    1
    17    17     2    1
    18    16    18    1
@<TRIPOS>MOLECULE
*****
 18 18 0 0 0
SMALL
GASTEIGER

@<TRIPOS>ATOM
      1 C          61.3143   89.7544    9.3446 C.3     1  UNL1        0.0261
      2 C          61.9489   88.9566   10.4449 C.2     1  UNL1       -0.0454
      3 C          62.5616   89.9495   11.3876 C.2     1  UNL1       -0.0342
      4 C          63.3374   90.1776   12.6510 C.3     1  UNL1        0.0294
      5 C          64.0300   89.5685   13.8340 C.3     1  UNL1        0.0227
      6 C          64.7952   89.9364   15.0705 C.3     1  UNL1        0.0047
      7 C          64.1411   91.0622   13.9159 C.3     1  UNL1        0.0047
      8 C          64.4194   88.3156   14.5609 C.2     1  UNL1       -0.0232
      9 C          64.3820   86.8166   14.6011 C.2     1  UNL1        0.0371
     10 C          63.9298   85.5474   13.9417 C.2     1  UNL1        0.1912
     11 O          64.4113   84.4244   14.8116 O.2     1  UNL1       -0.2869
     12 C          63.2063   84.9111   12.7921 C.2     1  UNL1        0.0151
     13 C          63.2801   83.4295   13.0143 C.3     1  UNL1        0.0341
     14 C          62.4411   85.1097   11.5173 C.2     1  UNL1        0.0018
     15 C          61.8773   86.0800   10.5220 C.3     1  UNL1        0.1363
     16 O          61.2023   85.2570    9.4651 O.3     1  UNL1       -0.3797
     17 C          61.6938   87.5141   10.1223 C.3     1  UNL1        0.0555
     18 H          61.2942   84.3157    9.6805 H       1  UNL1        0.2108
@<TRIPOS>BOND
     1     1     2    1
     2     2     3    2
     3     3     4    1
     4     4     5    1
     5     5     6    1
     6     5     7    1
     7     5     8    1
     8     8     9    2
     9     9    10    1
    10    10    11    2
    11    10    12    1
    12    12    13    1
    13    12    14    2
    14    14    15    1
    15    15    16    1
    16    15    17    1
    17    17     2    1
    18    16    18    1
@<TRIPOS>MOLECULE
*****
 18 18 0 0 0
SMALL
GASTEIGER

@<TRIPOS>ATOM
      1 C          63.1073   91.4714   11.0659 C.3     1  UNL1        0.0261
      2 C          63.1283   90.0275   11.4716 C.2     1  UNL1       -0.0454
      3 C          62.5174   89.2606   10.3365 C.2     1  UNL1       -0.0342
      4 C          62.1123   87.9236    9.7903 C.3     1  UNL1        0.0294
      5 C          62.0416   86.4409   10.0066 C.3     1  UNL1        0.0227
      6 C          61.5909   85.1729    9.3441 C.3     1  UNL1        0.0047
      7 C          61.4606   86.7690    8.6631 C.3     1  UNL1        0.0047
      8 C          62.3277   85.2834   10.9166 C.2     1  UNL1       -0.0232
      9 C          62.8798   84.8185   12.2316 C.2     1  UNL1        0.0371
     10 C          63.5226   85.1938   13.5339 C.2     1  UNL1        0.1912
     11 O          63.7238   83.9141   14.2901 O.2     1  UNL1       -0.2869
     12 C          64.0520   86.2902   14.4101 C.2     1  UNL1        0.0151
     13 C          64.5516   85.6282   15.6600 C.3     1  UNL1        0.0341
     14 C          64.3000   87.7595   14.5819 C.2     1  UNL1        0.0018
     15 C          64.1877   89.1353   13.9949 C.3     1  UNL1        0.1363
     16 O          64.7638   90.0765   15.0110 O.3     1  UNL1       -0.3797
     17 C          63.7509   89.9808   12.8355 C.3     1  UNL1        0.0555
     18 H          65.0624   89.5737   15.7849 H       1  UNL1        0.2108
@<TRIPOS>BOND
     1     1     2    1
     2     2     3    2
     3     3     4    1
     4     4     5    1
     5     5     6    1
     6     5     7    1
     7     5     8    1
     8     8     9    2
     9     9    10    1
    10    10    11    2
    11    10    12    1
    12    12    13    1
    13    12    14    2
    14    14    15    1
    15    15    16    1
    16    15    17    1
    17    17     2    1
    18    16    18    1
@<TRIPOS>MOLECULE
*****
 18 18 0 0 0
SMALL
GASTEIGER

@<TRIPOS>ATOM
      1 C          63.6493   82.3029   10.4356 C.3     1  UNL1        0.0261
      2 C          63.5244   83.7291   10.8831 C.2     1  UNL1       -0.0454
      3 C          64.0441   83.7779   12.2893 C.2     1  UNL1       -0.0342
      4 C          64.3284   84.6148   13.5012 C.3     1  UNL1        0.0294
      5 C          64.2872   85.9742   14.1341 C.3     1  UNL1        0.0227
      6 C          64.6195   86.6921   15.4085 C.3     1  UNL1        0.0047
      7 C          64.8584   84.9935   15.1150 C.3     1  UNL1        0.0047
      8 C          63.9334   87.4244   13.9868 C.2     1  UNL1       -0.0232
      9 C          63.3793   88.5051   13.1063 C.2     1  UNL1        0.0371
     10 C          62.8010   88.8730   11.7721 C.2     1  UNL1        0.1912
     11 O          62.5183   90.3451   11.8255 O.2     1  UNL1       -0.2869
     12 C          62.3820   88.4115   10.4077 C.2     1  UNL1        0.0151
     13 C          61.8632   89.6236    9.6925 C.3     1  UNL1        0.0341
     14 C          62.2554   87.2670    9.4465 C.2     1  UNL1        0.0018
     15 C          62.4613   85.8028    9.1935 C.3     1  UNL1        0.1363
     16 O          61.9871   85.5451    7.7939 O.3     1  UNL1       -0.3797
     17 C          62.9344   84.4840    9.7290 C.3     1  UNL1        0.0555
     18 H          61.6692   86.3737    7.4025 H       1  UNL1        0.2108
@<TRIPOS>BOND
     1     1     2    1
     2     2     3    2
     3     3     4    1
     4     4     5    1
     5     5     6    1
     6     5     7    1
     7     5     8    1
     8     8     9    2
     9     9    10    1
    10    10    11    2
    11    10    12    1
    12    12    13    1
    13    12    14    2
    14    14    15    1
    15    15    16    1
    16    15    17    1
    17    17     2    1
    18    16    18    1
