@<TRIPOS>MOLECULE
*****
 26 28 0 0 0
SMALL
GASTEIGER

@<TRIPOS>ATOM
      1 C          62.9133   82.1759   14.3793 C.3     1  UNL1        0.1697
      2 O          61.9634   81.0320   14.5772 O.3     1  UNL1       -0.3793
      3 H          62.1251   80.3566   13.9001 H       1  UNL1        0.2106
      4 C          62.8677   83.3571   15.3027 C.3     1  UNL1        0.1020
      5 N          64.0654   84.2498   15.4381 N.3     1  UNL1       -0.2963
      6 H          64.6072   83.8979   16.2275 H       1  UNL1        0.1233
      7 C          63.3331   90.1382   16.3277 C.3     1  UNL1        0.0896
      8 N          63.5162   88.6660   16.1053 N.3     1  UNL1       -0.2714
      9 C          62.9553   87.6833   17.0900 C.3     1  UNL1        0.0735
     10 C          63.1384   86.2113   16.8676 C.3     1  UNL1        0.0331
     11 C          63.8824   85.7219   15.6605 C.3     1  UNL1        0.0568
     12 C          64.4433   86.7046   14.6758 C.3     1  UNL1        0.0331
     13 C          64.2602   88.1767   14.8983 C.3     1  UNL1        0.0735
     14 C          63.9088   82.1386   13.2578 C.3     1  UNL1        0.2358
     15 O          64.4287   83.4185   12.6736 O.3     1  UNL1       -0.4728
     16 C          63.6500   84.1257   11.6042 C.ar    1  UNL1        0.1387
     17 C          63.8487   83.7572   10.1638 C.ar    1  UNL1        0.0369
     18 C          63.0699   84.4644    9.0945 C.ar    1  UNL1        0.0031
     19 C          62.0925   85.5400    9.4655 C.ar    1  UNL1        0.0007
     20 C          61.3137   86.2471    8.3961 C.ar    1  UNL1        0.0067
     21 C          60.3362   87.3227    8.7672 C.ar    1  UNL1        0.0346
     22 BR         59.5575   88.0298    7.6979 Br      1  UNL1       -0.0490
     23 C          60.1375   87.6911   10.2077 C.ar    1  UNL1        0.0067
     24 C          60.9163   86.9840   11.2770 C.ar    1  UNL1        0.0006
     25 C          61.8938   85.9084   10.9059 C.ar    1  UNL1        0.0030
     26 C          62.6725   85.2013   11.9752 C.ar    1  UNL1        0.0369
@<TRIPOS>BOND
     1     7     8    1
     2     8     9    1
     3     9    10    1
     4    10    11    1
     5    11     5    1
     6     5     4    1
     7     4     1    1
     8     1     2    1
     9     1    14    1
    10    14    15    1
    11    15    16    1
    12    16    17   ar
    13    17    18   ar
    14    18    19   ar
    15    19    20   ar
    16    20    21   ar
    17    21    22    1
    18    21    23   ar
    19    23    24   ar
    20    24    25   ar
    21    25    26   ar
    22    11    12    1
    23    12    13    1
    24    13     8    1
    25    26    16   ar
    26    25    19   ar
    27     5     6    1
    28     2     3    1
@<TRIPOS>MOLECULE
*****
 26 28 0 0 0
SMALL
GASTEIGER

@<TRIPOS>ATOM
      1 C          59.7379   87.0170    8.3930 C.3     1  UNL1        0.1697
      2 O          58.3840   86.7421    7.8087 O.3     1  UNL1       -0.3793
      3 H          57.7778   87.4616    8.0448 H       1  UNL1        0.2106
      4 C          60.8614   86.0483    8.1710 C.3     1  UNL1        0.1020
      5 N          62.1770   86.2547    8.8613 N.3     1  UNL1       -0.2963
      6 H          62.8821   86.3461    8.1300 H       1  UNL1        0.1233
      7 C          64.2140   82.1428   12.7270 C.3     1  UNL1        0.0896
      8 N          63.7048   83.1708   11.7605 N.3     1  UNL1       -0.2714
      9 C          64.0958   83.0991   10.3142 C.3     1  UNL1        0.0735
     10 C          63.5865   84.1271    9.3478 C.3     1  UNL1        0.0331
     11 C          62.6862   85.2267    9.8278 C.3     1  UNL1        0.0568
     12 C          62.2952   85.2983   11.2741 C.3     1  UNL1        0.0331
     13 C          62.8045   84.2704   12.2405 C.3     1  UNL1        0.0735
     14 C          59.9682   88.2607    9.1994 C.3     1  UNL1        0.2358
     15 O          60.6380   88.1729   10.5386 O.3     1  UNL1       -0.4728
     16 C          61.7101   89.1554   10.9069 C.ar    1  UNL1        0.1387
     17 C          62.0602   90.2708    9.9671 C.ar    1  UNL1        0.0369
     18 C          63.1322   91.2531   10.3354 C.ar    1  UNL1        0.0031
     19 C          63.8542   91.1201   11.6435 C.ar    1  UNL1        0.0007
     20 C          64.9263   92.1025   12.0118 C.ar    1  UNL1        0.0067
     21 C          65.6483   91.9694   13.3198 C.ar    1  UNL1        0.0346
     22 BR         66.7203   92.9518   13.6881 Br      1  UNL1       -0.0490
     23 C          65.2982   90.8539   14.2596 C.ar    1  UNL1        0.0067
     24 C          64.2261   89.8715   13.8913 C.ar    1  UNL1        0.0006
     25 C          63.5042   90.0046   12.5833 C.ar    1  UNL1        0.0030
     26 C          62.4321   89.0223   12.2150 C.ar    1  UNL1        0.0369
@<TRIPOS>BOND
     1     7     8    1
     2     8     9    1
     3     9    10    1
     4    10    11    1
     5    11     5    1
     6     5     4    1
     7     4     1    1
     8     1     2    1
     9     1    14    1
    10    14    15    1
    11    15    16    1
    12    16    17   ar
    13    17    18   ar
    14    18    19   ar
    15    19    20   ar
    16    20    21   ar
    17    21    22    1
    18    21    23   ar
    19    23    24   ar
    20    24    25   ar
    21    25    26   ar
    22    11    12    1
    23    12    13    1
    24    13     8    1
    25    26    16   ar
    26    25    19   ar
    27     5     6    1
    28     2     3    1
@<TRIPOS>MOLECULE
*****
 26 28 0 0 0
SMALL
GASTEIGER

@<TRIPOS>ATOM
      1 C          60.1488   88.4252   10.6463 C.3     1  UNL1        0.1697
      2 O          59.3925   88.2329   11.9274 O.3     1  UNL1       -0.3793
      3 H          59.3500   89.0748   12.4073 H       1  UNL1        0.2106
      4 C          60.3558   87.2667    9.7164 C.3     1  UNL1        0.1020
      5 N          61.7459   86.8307    9.3593 N.3     1  UNL1       -0.2963
      6 H          61.7279   86.5674    8.3740 H       1  UNL1        0.1233
      7 C          64.3194   82.2900   12.3188 C.3     1  UNL1        0.0896
      8 N          63.6760   83.4252   11.5789 N.3     1  UNL1       -0.2714
      9 C          63.8532   83.5492   10.0946 C.3     1  UNL1        0.0735
     10 C          63.2098   84.6843    9.3547 C.3     1  UNL1        0.0331
     11 C          62.3893   85.6955   10.0992 C.3     1  UNL1        0.0568
     12 C          62.2122   85.5716   11.5835 C.3     1  UNL1        0.0331
     13 C          62.8555   84.4364   12.3233 C.3     1  UNL1        0.0735
     14 C          60.6981   89.7762   10.2953 C.3     1  UNL1        0.2358
     15 O          62.1726   89.9551   10.0860 O.3     1  UNL1       -0.4728
     16 C          63.0602   90.2877   11.2486 C.ar    1  UNL1        0.1387
     17 C          63.0855   89.3937   12.4528 C.ar    1  UNL1        0.0369
     18 C          63.9731   89.7263   13.6153 C.ar    1  UNL1        0.0031
     19 C          64.8354   90.9529   13.5737 C.ar    1  UNL1        0.0007
     20 C          65.7231   91.2855   14.7363 C.ar    1  UNL1        0.0067
     21 C          66.5854   92.5121   14.6946 C.ar    1  UNL1        0.0346
     22 BR         67.4730   92.8447   15.8571 Br      1  UNL1       -0.0490
     23 C          66.5602   93.4061   13.4904 C.ar    1  UNL1        0.0067
     24 C          65.6726   93.0735   12.3279 C.ar    1  UNL1        0.0006
     25 C          64.8102   91.8469   12.3695 C.ar    1  UNL1        0.0030
     26 C          63.9226   91.5143   11.2070 C.ar    1  UNL1        0.0369
@<TRIPOS>BOND
     1     7     8    1
     2     8     9    1
     3     9    10    1
     4    10    11    1
     5    11     5    1
     6     5     4    1
     7     4     1    1
     8     1     2    1
     9     1    14    1
    10    14    15    1
    11    15    16    1
    12    16    17   ar
    13    17    18   ar
    14    18    19   ar
    15    19    20   ar
    16    20    21   ar
    17    21    22    1
    18    21    23   ar
    19    23    24   ar
    20    24    25   ar
    21    25    26   ar
    22    11    12    1
    23    12    13    1
    24    13     8    1
    25    26    16   ar
    26    25    19   ar
    27     5     6    1
    28     2     3    1
@<TRIPOS>MOLECULE
*****
 26 28 0 0 0
SMALL
GASTEIGER

@<TRIPOS>ATOM
      1 C          64.3717   91.6282   15.7955 C.3     1  UNL1        0.1697
      2 O          63.4382   92.2756   16.7751 O.3     1  UNL1       -0.3793
      3 H          62.5866   91.8113   16.7655 H       1  UNL1        0.2106
      4 C          65.7622   92.1623   15.6193 C.3     1  UNL1        0.1020
      5 N          66.0147   93.2993   14.6741 N.3     1  UNL1       -0.2963
      6 H          65.1144   93.7486   14.5068 H       1  UNL1        0.1233
      7 C          68.4497   92.2432    9.2930 C.3     1  UNL1        0.0896
      8 N          67.8409   92.5073   10.6383 N.3     1  UNL1       -0.2714
      9 C          66.7514   93.5283   10.7811 C.3     1  UNL1        0.0735
     10 C          66.1427   93.7923   12.1264 C.3     1  UNL1        0.0331
     11 C          66.6235   93.0353   13.3288 C.3     1  UNL1        0.0568
     12 C          67.7130   92.0142   13.1859 C.3     1  UNL1        0.0331
     13 C          68.3217   91.7502   11.8407 C.3     1  UNL1        0.0735
     14 C          63.9146   90.4468   14.9922 C.3     1  UNL1        0.2358
     15 O          64.4502   90.2283   13.6083 O.3     1  UNL1       -0.4728
     16 C          63.5214   89.8347   12.4981 C.ar    1  UNL1        0.1387
     17 C          62.9317   90.8860   11.6053 C.ar    1  UNL1        0.0369
     18 C          62.0030   90.4923   10.4952 C.ar    1  UNL1        0.0031
     19 C          61.6639   89.0474   10.2778 C.ar    1  UNL1        0.0007
     20 C          60.7351   88.6538    9.1676 C.ar    1  UNL1        0.0067
     21 C          60.3961   87.2089    8.9502 C.ar    1  UNL1        0.0346
     22 BR         59.4673   86.8153    7.8400 Br      1  UNL1       -0.0490
     23 C          60.9858   86.1576    9.8430 C.ar    1  UNL1        0.0067
     24 C          61.9145   86.5512   10.9531 C.ar    1  UNL1        0.0006
     25 C          62.2536   87.9961   11.1705 C.ar    1  UNL1        0.0030
     26 C          63.1823   88.3898   12.2807 C.ar    1  UNL1        0.0369
@<TRIPOS>BOND
     1     7     8    1
     2     8     9    1
     3     9    10    1
     4    10    11    1
     5    11     5    1
     6     5     4    1
     7     4     1    1
     8     1     2    1
     9     1    14    1
    10    14    15    1
    11    15    16    1
    12    16    17   ar
    13    17    18   ar
    14    18    19   ar
    15    19    20   ar
    16    20    21   ar
    17    21    22    1
    18    21    23   ar
    19    23    24   ar
    20    24    25   ar
    21    25    26   ar
    22    11    12    1
    23    12    13    1
    24    13     8    1
    25    26    16   ar
    26    25    19   ar
    27     5     6    1
    28     2     3    1
@<TRIPOS>MOLECULE
*****
 26 28 0 0 0
SMALL
GASTEIGER

@<TRIPOS>ATOM
      1 C          62.9556   86.8728   17.0319 C.3     1  UNL1        0.1697
      2 O          62.0458   86.1881   18.0084 O.3     1  UNL1       -0.3793
      3 H          61.6002   86.8532   18.5562 H       1  UNL1        0.2106
      4 C          63.7649   86.0609   16.0646 C.3     1  UNL1        0.1020
      5 N          63.7362   86.3901   14.6015 N.3     1  UNL1       -0.2963
      6 H          62.9072   86.9633   14.4448 H       1  UNL1        0.1233
      7 C          63.5861   81.9797   10.5362 C.3     1  UNL1        0.0896
      8 N          63.6236   83.0823   11.5526 N.3     1  UNL1       -0.2714
      9 C          62.7983   84.3182   11.3491 C.3     1  UNL1        0.0735
     10 C          62.8359   85.4208   12.3654 C.3     1  UNL1        0.0331
     11 C          63.6987   85.2875   13.5851 C.3     1  UNL1        0.0568
     12 C          64.5240   84.0516   13.7886 C.3     1  UNL1        0.0331
     13 C          64.4864   82.9490   12.7723 C.3     1  UNL1        0.0735
     14 C          63.0561   88.3695   17.0229 C.3     1  UNL1        0.2358
     15 O          62.4566   89.1546   15.8942 O.3     1  UNL1       -0.4728
     16 C          63.3318   90.0130   15.0297 C.ar    1  UNL1        0.1387
     17 C          64.5039   90.7320   15.6289 C.ar    1  UNL1        0.0369
     18 C          65.3790   91.5904   14.7645 C.ar    1  UNL1        0.0031
     19 C          65.0820   91.7298   13.3008 C.ar    1  UNL1        0.0007
     20 C          65.9571   92.5883   12.4364 C.ar    1  UNL1        0.0067
     21 C          65.6601   92.7277   10.9727 C.ar    1  UNL1        0.0346
     22 BR         66.5352   93.5861   10.1083 Br      1  UNL1       -0.0490
     23 C          64.4879   92.0087   10.3735 C.ar    1  UNL1        0.0067
     24 C          63.6128   91.1503   11.2379 C.ar    1  UNL1        0.0006
     25 C          63.9098   91.0109   12.7016 C.ar    1  UNL1        0.0030
     26 C          63.0347   90.1525   13.5660 C.ar    1  UNL1        0.0369
@<TRIPOS>BOND
     1     7     8    1
     2     8     9    1
     3     9    10    1
     4    10    11    1
     5    11     5    1
     6     5     4    1
     7     4     1    1
     8     1     2    1
     9     1    14    1
    10    14    15    1
    11    15    16    1
    12    16    17   ar
    13    17    18   ar
    14    18    19   ar
    15    19    20   ar
    16    20    21   ar
    17    21    22    1
    18    21    23   ar
    19    23    24   ar
    20    24    25   ar
    21    25    26   ar
    22    11    12    1
    23    12    13    1
    24    13     8    1
    25    26    16   ar
    26    25    19   ar
    27     5     6    1
    28     2     3    1
@<TRIPOS>MOLECULE
*****
 26 28 0 0 0
SMALL
GASTEIGER

@<TRIPOS>ATOM
      1 C          67.0128   92.2742   14.5384 C.3     1  UNL1        0.1697
      2 O          68.3962   91.6963   14.5879 O.3     1  UNL1       -0.3793
      3 H          68.3541   90.7843   14.9156 H       1  UNL1        0.2106
      4 C          66.8045   93.6816   14.0634 C.3     1  UNL1        0.1020
      5 N          65.7824   93.9723   13.0047 N.3     1  UNL1       -0.2963
      6 H          65.3765   93.0767   12.7335 H       1  UNL1        0.1233
      7 C          67.4149   96.7396    7.9375 C.3     1  UNL1        0.0896
      8 N          67.0068   96.0478    9.2043 N.3     1  UNL1       -0.2714
      9 C          66.5878   96.8541   10.3977 C.3     1  UNL1        0.0735
     10 C          66.1797   96.1623   11.6645 C.3     1  UNL1        0.0331
     11 C          66.1905   94.6641   11.7379 C.3     1  UNL1        0.0568
     12 C          66.6095   93.8578   10.5445 C.3     1  UNL1        0.0331
     13 C          67.0176   94.5496    9.2777 C.3     1  UNL1        0.0735
     14 C          65.8378   91.4446   14.9641 C.3     1  UNL1        0.2358
     15 O          64.5075   91.6302   14.2965 O.3     1  UNL1       -0.4728
     16 C          63.9260   90.5266   13.4633 C.ar    1  UNL1        0.1387
     17 C          64.1163   89.0966   13.8743 C.ar    1  UNL1        0.0369
     18 C          63.5349   87.9932   13.0411 C.ar    1  UNL1        0.0031
     19 C          62.7631   88.3197   11.7970 C.ar    1  UNL1        0.0007
     20 C          62.1817   87.2161   10.9638 C.ar    1  UNL1        0.0067
     21 C          61.4100   87.5426    9.7196 C.ar    1  UNL1        0.0346
     22 BR         60.8285   86.4391    8.8865 Br      1  UNL1       -0.0490
     23 C          61.2197   88.9727    9.3087 C.ar    1  UNL1        0.0067
     24 C          61.8012   90.0761   10.1419 C.ar    1  UNL1        0.0006
     25 C          62.5729   89.7496   11.3860 C.ar    1  UNL1        0.0030
     26 C          63.1543   90.8531   12.2192 C.ar    1  UNL1        0.0369
@<TRIPOS>BOND
     1     7     8    1
     2     8     9    1
     3     9    10    1
     4    10    11    1
     5    11     5    1
     6     5     4    1
     7     4     1    1
     8     1     2    1
     9     1    14    1
    10    14    15    1
    11    15    16    1
    12    16    17   ar
    13    17    18   ar
    14    18    19   ar
    15    19    20   ar
    16    20    21   ar
    17    21    22    1
    18    21    23   ar
    19    23    24   ar
    20    24    25   ar
    21    25    26   ar
    22    11    12    1
    23    12    13    1
    24    13     8    1
    25    26    16   ar
    26    25    19   ar
    27     5     6    1
    28     2     3    1
@<TRIPOS>MOLECULE
*****
 26 28 0 0 0
SMALL
GASTEIGER

@<TRIPOS>ATOM
      1 C          65.2123   92.1334   15.7257 C.3     1  UNL1        0.1697
      2 O          64.8631   92.7982   17.0242 O.3     1  UNL1       -0.3793
      3 H          63.9662   92.5402   17.2886 H       1  UNL1        0.2106
      4 C          66.5539   92.3710   15.0984 C.3     1  UNL1        0.1020
      5 N          66.8898   91.7345   13.7824 N.3     1  UNL1       -0.2963
      6 H          67.8014   91.2906   13.8941 H       1  UNL1        0.1233
      7 C          67.1940   95.0899    8.8177 C.3     1  UNL1        0.0896
      8 N          67.1180   94.2510   10.0589 N.3     1  UNL1       -0.2714
      9 C          67.7833   92.9072   10.0978 C.3     1  UNL1        0.0735
     10 C          67.7072   92.0684   11.3390 C.3     1  UNL1        0.0331
     11 C          66.9658   92.5734   12.5412 C.3     1  UNL1        0.0568
     12 C          66.3005   93.9171   12.5023 C.3     1  UNL1        0.0331
     13 C          66.3766   94.7560   11.2611 C.3     1  UNL1        0.0735
     14 C          64.2196   91.2311   15.0544 C.3     1  UNL1        0.2358
     15 O          63.7766   91.5165   13.6500 O.3     1  UNL1       -0.4728
     16 C          63.2584   90.4048   12.7865 C.ar    1  UNL1        0.1387
     17 C          63.6547   88.9865   13.0717 C.ar    1  UNL1        0.0369
     18 C          63.1365   87.8749   12.2082 C.ar    1  UNL1        0.0031
     19 C          62.2219   88.1816   11.0594 C.ar    1  UNL1        0.0007
     20 C          61.7037   87.0699   10.1959 C.ar    1  UNL1        0.0067
     21 C          60.7892   87.3765    9.0472 C.ar    1  UNL1        0.0346
     22 BR         60.2710   86.2649    8.1836 Br      1  UNL1       -0.0490
     23 C          60.3929   88.7949    8.7620 C.ar    1  UNL1        0.0067
     24 C          60.9111   89.9065    9.6255 C.ar    1  UNL1        0.0006
     25 C          61.8256   89.5998   10.7742 C.ar    1  UNL1        0.0030
     26 C          62.3438   90.7115   11.6378 C.ar    1  UNL1        0.0369
@<TRIPOS>BOND
     1     7     8    1
     2     8     9    1
     3     9    10    1
     4    10    11    1
     5    11     5    1
     6     5     4    1
     7     4     1    1
     8     1     2    1
     9     1    14    1
    10    14    15    1
    11    15    16    1
    12    16    17   ar
    13    17    18   ar
    14    18    19   ar
    15    19    20   ar
    16    20    21   ar
    17    21    22    1
    18    21    23   ar
    19    23    24   ar
    20    24    25   ar
    21    25    26   ar
    22    11    12    1
    23    12    13    1
    24    13     8    1
    25    26    16   ar
    26    25    19   ar
    27     5     6    1
    28     2     3    1
@<TRIPOS>MOLECULE
*****
 26 28 0 0 0
SMALL
GASTEIGER

@<TRIPOS>ATOM
      1 C          61.3432   87.6196   10.8246 C.3     1  UNL1        0.1697
      2 O          60.0612   87.8501   11.5685 O.3     1  UNL1       -0.3793
      3 H          59.7369   88.7455   11.3841 H       1  UNL1        0.2106
      4 C          62.0523   86.3031   10.9422 C.3     1  UNL1        0.1020
      5 N          62.6435   85.8844   12.2556 N.3     1  UNL1       -0.2963
      6 H          63.6176   86.1869   12.2499 H       1  UNL1        0.1233
      7 C          62.6361   80.0974   13.8402 C.3     1  UNL1        0.0896
      8 N          62.6380   81.5442   13.4440 N.3     1  UNL1       -0.2714
      9 C          62.7554   81.9257   11.9981 C.3     1  UNL1        0.0735
     10 C          62.7572   83.3724   11.6020 C.3     1  UNL1        0.0331
     11 C          62.6416   84.4376   12.6518 C.3     1  UNL1        0.0568
     12 C          62.5242   84.0561   14.0977 C.3     1  UNL1        0.0331
     13 C          62.5224   82.6094   14.4938 C.3     1  UNL1        0.0735
     14 C          61.9161   88.7058    9.9630 C.3     1  UNL1        0.2358
     15 O          62.0498   90.0990   10.5025 O.3     1  UNL1       -0.4728
     16 C          63.0445   90.3912   11.5866 C.ar    1  UNL1        0.1387
     17 C          63.1761   89.4594   12.7547 C.ar    1  UNL1        0.0369
     18 C          64.1708   89.7517   13.8388 C.ar    1  UNL1        0.0031
     19 C          65.0337   90.9757   13.7548 C.ar    1  UNL1        0.0007
     20 C          66.0284   91.2680   14.8389 C.ar    1  UNL1        0.0067
     21 C          66.8913   92.4920   14.7550 C.ar    1  UNL1        0.0346
     22 BR         67.8859   92.7843   15.8390 Br      1  UNL1       -0.0490
     23 C          66.7596   93.4238   13.5868 C.ar    1  UNL1        0.0067
     24 C          65.7649   93.1316   12.5027 C.ar    1  UNL1        0.0006
     25 C          64.9020   91.9075   12.5867 C.ar    1  UNL1        0.0030
     26 C          63.9074   91.6152   11.5027 C.ar    1  UNL1        0.0369
@<TRIPOS>BOND
     1     7     8    1
     2     8     9    1
     3     9    10    1
     4    10    11    1
     5    11     5    1
     6     5     4    1
     7     4     1    1
     8     1     2    1
     9     1    14    1
    10    14    15    1
    11    15    16    1
    12    16    17   ar
    13    17    18   ar
    14    18    19   ar
    15    19    20   ar
    16    20    21   ar
    17    21    22    1
    18    21    23   ar
    19    23    24   ar
    20    24    25   ar
    21    25    26   ar
    22    11    12    1
    23    12    13    1
    24    13     8    1
    25    26    16   ar
    26    25    19   ar
    27     5     6    1
    28     2     3    1
@<TRIPOS>MOLECULE
*****
 26 28 0 0 0
SMALL
GASTEIGER

@<TRIPOS>ATOM
      1 C          63.7608   89.5658   13.7151 C.3     1  UNL1        0.1697
      2 O          63.9865   88.1112   14.0033 O.3     1  UNL1       -0.3793
      3 H          63.5037   87.5745   13.3554 H       1  UNL1        0.2106
      4 C          64.4028   90.6101   14.5795 C.3     1  UNL1        0.1020
      5 N          64.7003   91.9689   14.0184 N.3     1  UNL1       -0.2963
      6 H          63.8188   92.3409   13.6648 H       1  UNL1        0.1233
      7 C          68.7291   92.5799    9.6143 C.3     1  UNL1        0.0896
      8 N          67.7219   92.4271   10.7154 N.3     1  UNL1       -0.2714
      9 C          68.1643   91.9947   12.0818 C.3     1  UNL1        0.0735
     10 C          67.1571   91.8420   13.1828 C.3     1  UNL1        0.0331
     11 C          65.7075   92.1217   12.9173 C.3     1  UNL1        0.0568
     12 C          65.2651   92.5541   11.5508 C.3     1  UNL1        0.0331
     13 C          66.2723   92.7068   10.4499 C.3     1  UNL1        0.0735
     14 C          62.8929   89.9762   12.5625 C.3     1  UNL1        0.2358
     15 O          61.5594   89.3208   12.3572 O.3     1  UNL1       -0.4728
     16 C          61.3158   88.4818   11.1378 C.ar    1  UNL1        0.1387
     17 C          60.0210   88.6031   10.3904 C.ar    1  UNL1        0.0369
     18 C          59.7775   87.7642    9.1710 C.ar    1  UNL1        0.0031
     19 C          60.8288   86.8040    8.6990 C.ar    1  UNL1        0.0007
     20 C          60.5853   85.9651    7.4796 C.ar    1  UNL1        0.0067
     21 C          61.6366   85.0049    7.0076 C.ar    1  UNL1        0.0346
     22 BR         61.3931   84.1660    5.7883 Br      1  UNL1       -0.0490
     23 C          62.9315   84.8836    7.7551 C.ar    1  UNL1        0.0067
     24 C          63.1750   85.7226    8.9745 C.ar    1  UNL1        0.0006
     25 C          62.1237   86.6827    9.4464 C.ar    1  UNL1        0.0030
     26 C          62.3672   87.5217   10.6658 C.ar    1  UNL1        0.0369
@<TRIPOS>BOND
     1     7     8    1
     2     8     9    1
     3     9    10    1
     4    10    11    1
     5    11     5    1
     6     5     4    1
     7     4     1    1
     8     1     2    1
     9     1    14    1
    10    14    15    1
    11    15    16    1
    12    16    17   ar
    13    17    18   ar
    14    18    19   ar
    15    19    20   ar
    16    20    21   ar
    17    21    22    1
    18    21    23   ar
    19    23    24   ar
    20    24    25   ar
    21    25    26   ar
    22    11    12    1
    23    12    13    1
    24    13     8    1
    25    26    16   ar
    26    25    19   ar
    27     5     6    1
    28     2     3    1
