@<TRIPOS>MOLECULE
*****
 62 69 0 0 0
SMALL
GASTEIGER

@<TRIPOS>ATOM
      1 N          62.3629   94.5889   -3.3882 N.3     1  UNL1       -0.1862
      2 C          61.2659   94.2317   -4.3467 C.3     1  UNL1        0.1775
      3 C          59.9378   93.7669   -3.8271 C.2     1  UNL1        0.2452
      4 O          58.8407   93.4096   -4.7857 O.2     1  UNL1       -0.2732
      5 N          59.7066   93.6594   -2.3489 N.am    1  UNL1       -0.2541
      6 C          58.3785   93.1946   -1.8293 C.3     1  UNL1        0.1577
      7 C          58.1474   93.0871   -0.3512 C.2     1  UNL1        0.2445
      8 O          56.8192   92.6223    0.1684 O.2     1  UNL1       -0.2731
      9 N          59.2444   93.4444    0.6075 N.am    1  UNL1       -0.2705
     10 C          60.5726   93.9091    0.0878 C.3     1  UNL1        0.1359
     11 C          60.8037   94.0166   -1.3904 C.3     1  UNL1        0.1908
     12 N          62.1318   94.4814   -1.9100 N.am    1  UNL1       -0.1863
     13 C          63.2289   94.8387   -0.9514 C.2     1  UNL1        0.3191
     14 O          62.9978   94.7311    0.5268 O.2     1  UNL1       -0.2512
     15 N          64.5570   95.3034   -1.4710 N.am    1  UNL1       -0.2836
     16 H          64.7087   95.3740   -2.4412 H       1  UNL1        0.1513
     17 C          63.6911   95.0537   -3.9078 C.3     1  UNL1        0.1188
     18 C          65.1186   94.3417   -5.9584 C.2     1  UNL1       -0.0034
     19 C          63.9490   95.0855   -5.3851 C.2     1  UNL1       -0.0071
     20 C          57.2814   92.8374   -2.7879 C.3     1  UNL1        0.0556
     21 C          56.1857   93.8210   -3.0741 C.ar    1  UNL1       -0.0198
     22 C          55.3877   94.4040   -1.9458 C.ar    1  UNL1       -0.0011
     23 C          54.2919   95.3876   -2.2320 C.ar    1  UNL1        0.0363
     24 C          53.9943   95.7882   -3.6465 C.ar    1  UNL1        0.1337
     25 O          52.8985   96.7718   -3.9327 O.3     1  UNL1       -0.5055
     26 C          54.7924   95.2051   -4.7749 C.ar    1  UNL1        0.0363
     27 C          55.8881   94.2215   -4.4887 C.ar    1  UNL1       -0.0011
     28 H          52.4000   97.1360   -3.2279 H       1  UNL1        0.2922
     29 C          59.0133   93.3369    2.0856 C.3     1  UNL1        0.1217
     30 C          59.9089   92.4736    2.9240 C.ar    1  UNL1        0.0135
     31 C          61.3697   92.3707    2.5992 C.ar    1  UNL1       -0.0012
     32 C          62.2654   91.5075    3.4375 C.ar    1  UNL1       -0.0002
     33 C          61.7002   90.7473    4.6005 C.ar    1  UNL1        0.0015
     34 C          60.2394   90.8503    4.9253 C.ar    1  UNL1        0.0170
     35 C          59.4037   90.2227    6.0013 C.ar    1  UNL1        0.0201
     36 C          57.9916   90.6980    5.8279 C.ar    1  UNL1        0.0760
     37 N          57.9546   91.6193    4.6449 N.ar    1  UNL1       -0.3242
     38 C          56.7413   92.3230    4.1130 C.3     1  UNL1        0.1305
     39 C          59.3438   91.7135    4.0870 C.ar    1  UNL1        0.0575
     40 C          59.8941   89.2845    7.0640 C.ar    1  UNL1        0.0208
     41 C          59.6829   87.8069    6.9156 C.ar    1  UNL1        0.0045
     42 C          60.1733   86.8688    7.9783 C.ar    1  UNL1        0.0345
     43 C          60.8748   87.4082    9.1895 C.ar    1  UNL1        0.1353
     44 N          61.0859   88.8858    9.3379 N.ar    1  UNL1       -0.2290
     45 C          60.5956   89.8239    8.2752 C.ar    1  UNL1        0.1003
     46 N          61.3651   86.4700   10.2522 N.am    1  UNL1       -0.2535
     47 C          62.3990   85.4351    9.9202 C.2     1  UNL1        0.3089
     48 O          62.9424   85.3384    8.5255 O.2     1  UNL1       -0.2522
     49 N          62.8892   84.4969   10.9830 N.am    1  UNL1       -0.2588
     50 C          63.9230   83.4620   10.6509 C.3     1  UNL1        0.1270
     51 C          64.4134   82.5238   11.7136 C.3     1  UNL1        0.1637
     52 O          63.8699   82.6206   13.1084 O.3     1  UNL1       -0.3501
     53 C          62.8361   83.6555   13.4404 C.3     1  UNL1        0.1637
     54 C          62.3458   84.5937   12.3777 C.3     1  UNL1        0.1270
     55 H          61.0084   86.5335   11.1676 H       1  UNL1        0.1578
     56 C          65.6541   95.6607   -0.5125 C.3     1  UNL1        0.1177
     57 C          65.4095   95.5939    0.9660 C.ar    1  UNL1       -0.0025
     58 C          65.3558   96.8558    1.7750 C.ar    1  UNL1       -0.0026
     59 C          65.1112   96.7890    3.2535 C.ar    1  UNL1       -0.0003
     60 C          64.9205   95.4603    3.9228 C.ar    1  UNL1       -0.0000
     61 C          64.9742   94.1982    3.1137 C.ar    1  UNL1       -0.0003
     62 C          65.2188   94.2651    1.6353 C.ar    1  UNL1       -0.0026
@<TRIPOS>BOND
     1    18    19    2
     2    19    17    1
     3    17     1    1
     4     1     2    1
     5     2     3    1
     6     3     4    2
     7     3     5   am
     8     5     6    1
     9     6    20    1
    10    20    21    1
    11    21    22   ar
    12    22    23   ar
    13    23    24   ar
    14    24    25    1
    15    24    26   ar
    16    26    27   ar
    17     6     7    1
    18     7     8    2
    19     7     9   am
    20     9    29    1
    21    29    30    1
    22    30    31   ar
    23    31    32   ar
    24    32    33   ar
    25    33    34   ar
    26    34    35   ar
    27    35    40    1
    28    40    41   ar
    29    41    42   ar
    30    42    43   ar
    31    43    46    1
    32    46    47   am
    33    47    48    2
    34    47    49   am
    35    49    50    1
    36    50    51    1
    37    51    52    1
    38    52    53    1
    39    53    54    1
    40    43    44   ar
    41    44    45   ar
    42    35    36   ar
    43    36    37   ar
    44    37    38    1
    45    37    39   ar
    46     9    10    1
    47    11    10    1
    48    11    12    1
    49    12    13   am
    50    13    14    2
    51    13    15   am
    52    15    56    1
    53    56    57    1
    54    57    58   ar
    55    58    59   ar
    56    59    60   ar
    57    60    61   ar
    58    61    62   ar
    59    12     1    1
    60    62    57   ar
    61    11     5    1
    62    27    21   ar
    63    39    30   ar
    64    39    34   ar
    65    45    40   ar
    66    54    49    1
    67    25    28    1
    68    46    55    1
    69    15    16    1
