@<TRIPOS>MOLECULE
*****
 27 30 0 0 0
SMALL
GASTEIGER

@<TRIPOS>ATOM
      1 C          64.3573   91.6665   12.1954 C.3     1  UNL1        0.0964
      2 C          64.5119   90.5331   13.1658 C.3     1  UNL1        0.0430
      3 C          63.5619   89.4446   12.7623 C.3     1  UNL1        0.0985
      4 N          62.8203   89.9052   11.5425 N.am    1  UNL1       -0.2443
      5 C          61.7713   89.1289   10.8029 C.2     1  UNL1        0.4048
      6 O          61.1129   89.7222    9.5928 O.2     1  UNL1       -0.2262
      7 C          63.3118   91.2784   11.1922 C.3     1  UNL1        0.1163
      8 C          66.2778   93.1692   11.2989 C.2     1  UNL1        0.4014
      9 O          66.6827   92.0834   10.3465 O.2     1  UNL1       -0.2264
     10 N          65.1150   92.9607   12.2233 N.am    1  UNL1       -0.2705
     11 H          64.8492   93.6733   12.8484 H       1  UNL1        0.1527
     12 O          67.0355   94.4633   11.3268 O.3     1  UNL1       -0.4419
     13 C          67.6651   94.7633    9.3233 C.3     1  UNL1        0.0437
     14 C          66.7787   95.5056   10.2791 C.3     1  UNL1        0.1378
     15 C          65.8923   96.2478   11.2348 C.3     1  UNL1        0.0437
     16 C          66.5218   96.5478    9.2314 C.3     1  UNL1        0.0437
     17 O          61.3807   87.7592   11.2735 O.3     1  UNL1       -0.4383
     18 C          62.0429   86.5476   10.6874 C.3     1  UNL1        0.1702
     19 C          62.5029   85.4367   11.5842 C.3     1  UNL1        0.0402
     20 C          62.7050   85.3360   10.1013 C.3     1  UNL1        0.0036
     21 C          63.3671   84.1244    9.5152 C.3     1  UNL1        0.0002
     22 C          63.8271   83.0134   10.4120 C.3     1  UNL1        0.0000
     23 C          63.6250   83.1141   11.8949 C.3     1  UNL1        0.0002
     24 C          62.9629   84.3257   12.4809 C.3     1  UNL1        0.0036
     25 C          62.3938   85.8637   10.5784 C.3     1  UNL1        0.0036
     26 C          62.2449   86.4469    9.2045 C.3     1  UNL1        0.0402
     27 C          62.9071   85.2353    8.6184 C.3     1  UNL1        0.0036
@<TRIPOS>BOND
     1    13    14    1
     2    14    15    1
     3    14    16    1
     4    14    12    1
     5    12     8    1
     6     8     9    2
     7     8    10   am
     8     1    10    1
     9     1     2    1
    10     2     3    1
    11     3     4    1
    12     4     5   am
    13     5     6    2
    14     5    17    1
    15    17    18    1
    16    18    19    1
    17    19    20    1
    18    20    21    1
    19    21    22    1
    20    22    23    1
    21    23    24    1
    22    23    25    1
    23    25    26    1
    24    26    27    1
    25     4     7    1
    26     7     1    1
    27    26    18    1
    28    24    19    1
    29    27    21    1
    30    10    11    1
@<TRIPOS>MOLECULE
*****
 27 30 0 0 0
SMALL
GASTEIGER

@<TRIPOS>ATOM
      1 C          64.6096   90.0424   13.7662 C.3     1  UNL1        0.0964
      2 C          64.4644   88.6064   14.1749 C.3     1  UNL1        0.0430
      3 C          63.4094   87.9828   13.3099 C.3     1  UNL1        0.0985
      4 N          62.9027   89.0333   12.3668 N.am    1  UNL1       -0.2443
      5 C          61.8406   88.8441   11.3245 C.2     1  UNL1        0.4048
      6 O          61.4354   89.9931   10.4495 O.2     1  UNL1       -0.2262
      7 C          63.6445   90.3062   12.6488 C.3     1  UNL1        0.1163
      8 C          65.1304   91.8507   15.5576 C.2     1  UNL1        0.4014
      9 O          63.7619   91.6649   16.1429 O.2     1  UNL1       -0.2264
     10 N          65.5542   91.0394   14.3692 N.am    1  UNL1       -0.2705
     11 H          66.4524   91.1614   13.9850 H       1  UNL1        0.1527
     12 O          66.0750   92.8477   16.1605 O.3     1  UNL1       -0.4419
     13 C          68.0076   92.1436   16.6795 C.3     1  UNL1        0.0437
     14 C          67.4528   93.0147   15.5916 C.3     1  UNL1        0.1378
     15 C          66.8980   93.8858   14.5038 C.3     1  UNL1        0.0437
     16 C          68.8306   93.1818   15.0228 C.3     1  UNL1        0.0437
     17 O          61.1838   87.5060   11.1573 O.3     1  UNL1       -0.4383
     18 C          61.9387   86.3735   10.5266 C.3     1  UNL1        0.1702
     19 C          62.3952   85.2171   11.3658 C.3     1  UNL1        0.0402
     20 C          62.6935   85.2411    9.8960 C.3     1  UNL1        0.0036
     21 C          63.4484   84.1086    9.2654 C.3     1  UNL1        0.0002
     22 C          63.9049   82.9522   10.1046 C.3     1  UNL1        0.0000
     23 C          63.6067   82.9283   11.5744 C.3     1  UNL1        0.0002
     24 C          62.8518   84.0607   12.2050 C.3     1  UNL1        0.0036
     25 C          62.3283   85.7161   10.3899 C.3     1  UNL1        0.0036
     26 C          62.2369   86.3975    9.0568 C.3     1  UNL1        0.0402
     27 C          62.9918   85.2650    8.4262 C.3     1  UNL1        0.0036
@<TRIPOS>BOND
     1    13    14    1
     2    14    15    1
     3    14    16    1
     4    14    12    1
     5    12     8    1
     6     8     9    2
     7     8    10   am
     8     1    10    1
     9     1     2    1
    10     2     3    1
    11     3     4    1
    12     4     5   am
    13     5     6    2
    14     5    17    1
    15    17    18    1
    16    18    19    1
    17    19    20    1
    18    20    21    1
    19    21    22    1
    20    22    23    1
    21    23    24    1
    22    23    25    1
    23    25    26    1
    24    26    27    1
    25     4     7    1
    26     7     1    1
    27    26    18    1
    28    24    19    1
    29    27    21    1
    30    10    11    1
@<TRIPOS>MOLECULE
*****
 27 30 0 0 0
SMALL
GASTEIGER

@<TRIPOS>ATOM
      1 C          64.5706   90.0779   13.7525 C.3     1  UNL1        0.0964
      2 C          64.3885   88.6530   14.1843 C.3     1  UNL1        0.0430
      3 C          63.2971   88.0515   13.3491 C.3     1  UNL1        0.0985
      4 N          62.8050   89.1048   12.4012 N.am    1  UNL1       -0.2443
      5 C          61.7167   88.9353   11.3828 C.2     1  UNL1        0.4048
      6 O          61.3304   90.0846   10.4998 O.2     1  UNL1       -0.2262
      7 C          63.5920   90.3571   12.6506 C.3     1  UNL1        0.1163
      8 C          65.1972   91.8663   15.5299 C.2     1  UNL1        0.4014
      9 O          63.8489   91.7054   16.1671 O.2     1  UNL1       -0.2264
     10 N          65.5580   91.0525   14.3226 N.am    1  UNL1       -0.2705
     11 H          66.4430   91.1581   13.9043 H       1  UNL1        0.1527
     12 O          66.1846   92.8409   16.1000 O.3     1  UNL1       -0.4419
     13 C          66.9736   93.8404   14.4033 C.3     1  UNL1        0.0437
     14 C          67.5466   92.9745   15.4859 C.3     1  UNL1        0.1378
     15 C          68.1197   92.1086   16.5684 C.3     1  UNL1        0.0437
     16 C          68.9086   93.1081   14.8718 C.3     1  UNL1        0.0437
     17 O          61.0148   87.6166   11.2476 O.3     1  UNL1       -0.4383
     18 C          60.8440   86.9933    9.8939 C.3     1  UNL1        0.1702
     19 C          61.9368   86.1436    9.3161 C.3     1  UNL1        0.0402
     20 C          60.6732   86.3700    8.5403 C.3     1  UNL1        0.0036
     21 C          60.5024   85.7467    7.1867 C.3     1  UNL1        0.0002
     22 C          61.5952   84.8970    6.6090 C.3     1  UNL1        0.0000
     23 C          62.8588   84.6706    7.3848 C.3     1  UNL1        0.0002
     24 C          63.0296   85.2939    8.7384 C.3     1  UNL1        0.0036
     25 C          60.9408   86.5984    9.2324 C.3     1  UNL1        0.0036
     26 C          59.5804   87.2196    9.1180 C.3     1  UNL1        0.0402
     27 C          59.4096   86.5963    7.7645 C.3     1  UNL1        0.0036
@<TRIPOS>BOND
     1    13    14    1
     2    14    15    1
     3    14    16    1
     4    14    12    1
     5    12     8    1
     6     8     9    2
     7     8    10   am
     8     1    10    1
     9     1     2    1
    10     2     3    1
    11     3     4    1
    12     4     5   am
    13     5     6    2
    14     5    17    1
    15    17    18    1
    16    18    19    1
    17    19    20    1
    18    20    21    1
    19    21    22    1
    20    22    23    1
    21    23    24    1
    22    23    25    1
    23    25    26    1
    24    26    27    1
    25     4     7    1
    26     7     1    1
    27    26    18    1
    28    24    19    1
    29    27    21    1
    30    10    11    1
@<TRIPOS>MOLECULE
*****
 27 30 0 0 0
SMALL
GASTEIGER

@<TRIPOS>ATOM
      1 C          63.8808   86.4473   14.9604 C.3     1  UNL1        0.0964
      2 C          64.1179   87.0293   13.5983 C.3     1  UNL1        0.0430
      3 C          64.0494   88.5233   13.7144 C.3     1  UNL1        0.0985
      4 N          63.7700   88.8645   15.1481 N.am    1  UNL1       -0.2443
      5 C          63.6210   90.2463   15.7126 C.2     1  UNL1        0.4048
      6 O          63.3411   90.4331   17.1744 O.2     1  UNL1       -0.2262
      7 C          63.6658   87.5815   15.9181 C.3     1  UNL1        0.1163
      8 C          62.9330   84.0583   14.5806 C.2     1  UNL1        0.4014
      9 O          62.0228   84.5891   13.5130 O.2     1  UNL1       -0.2264
     10 N          63.8620   84.9875   15.3043 N.am    1  UNL1       -0.2705
     11 H          64.4594   84.6391   16.0050 H       1  UNL1        0.1527
     12 O          62.9142   82.5984   14.9245 O.3     1  UNL1       -0.4419
     13 C          64.1916   81.8981   13.3823 C.3     1  UNL1        0.0437
     14 C          62.7992   81.5729   13.8359 C.3     1  UNL1        0.1378
     15 C          61.4069   81.2477   14.2893 C.3     1  UNL1        0.0437
     16 C          62.6842   80.5474   12.7473 C.3     1  UNL1        0.0437
     17 O          63.7518   91.4412   14.8153 O.3     1  UNL1       -0.4383
     18 C          65.0280   91.6784   14.0635 C.3     1  UNL1        0.1702
     19 C          64.9870   91.9981   12.5985 C.3     1  UNL1        0.0402
     20 C          66.3040   91.9156   13.3116 C.3     1  UNL1        0.0036
     21 C          67.5801   92.1529   12.5597 C.3     1  UNL1        0.0002
     22 C          67.5391   92.4726   11.0948 C.3     1  UNL1        0.0000
     23 C          66.2221   92.5551   10.3817 C.3     1  UNL1        0.0002
     24 C          64.9460   92.3178   11.1336 C.3     1  UNL1        0.0036
     25 C          65.5609   91.8281   13.5191 C.3     1  UNL1        0.0036
     26 C          66.3450   91.5959   14.7766 C.3     1  UNL1        0.0402
     27 C          67.6211   91.8331   14.0247 C.3     1  UNL1        0.0036
@<TRIPOS>BOND
     1    13    14    1
     2    14    15    1
     3    14    16    1
     4    14    12    1
     5    12     8    1
     6     8     9    2
     7     8    10   am
     8     1    10    1
     9     1     2    1
    10     2     3    1
    11     3     4    1
    12     4     5   am
    13     5     6    2
    14     5    17    1
    15    17    18    1
    16    18    19    1
    17    19    20    1
    18    20    21    1
    19    21    22    1
    20    22    23    1
    21    23    24    1
    22    23    25    1
    23    25    26    1
    24    26    27    1
    25     4     7    1
    26     7     1    1
    27    26    18    1
    28    24    19    1
    29    27    21    1
    30    10    11    1
@<TRIPOS>MOLECULE
*****
 27 30 0 0 0
SMALL
GASTEIGER

@<TRIPOS>ATOM
      1 C          64.6117   89.5047   13.9448 C.3     1  UNL1        0.0964
      2 C          63.6501   89.3944   12.7988 C.3     1  UNL1        0.0430
      3 C          63.1201   87.9913   12.7719 C.3     1  UNL1        0.0985
      4 N          63.7542   87.2346   13.9012 N.am    1  UNL1       -0.2443
      5 C          63.5094   85.7952   14.2452 C.2     1  UNL1        0.4048
      6 O          64.2197   85.1711   15.4096 O.2     1  UNL1       -0.2262
      7 C          64.6760   88.1699   14.6261 C.3     1  UNL1        0.1163
      8 C          64.8313   91.6460   15.3997 C.2     1  UNL1        0.4014
      9 O          63.5245   91.3286   16.0641 O.2     1  UNL1       -0.2264
     10 N          65.3749   90.7340   14.3401 N.am    1  UNL1       -0.2705
     11 H          66.2326   90.9423   13.9040 H       1  UNL1        0.1527
     12 O          65.5945   92.8752   15.7950 O.3     1  UNL1       -0.4419
     13 C          67.4526   92.2557   16.6099 C.3     1  UNL1        0.0437
     14 C          67.0319   93.0269   15.3940 C.3     1  UNL1        0.1378
     15 C          66.6113   93.7981   14.1781 C.3     1  UNL1        0.0437
     16 C          68.4693   93.1786   14.9929 C.3     1  UNL1        0.0437
     17 O          62.5543   84.9800   13.4247 O.3     1  UNL1       -0.4383
     18 C          62.8705   84.6723   11.9911 C.3     1  UNL1        0.1702
     19 C          62.2119   85.4540   10.8933 C.3     1  UNL1        0.0402
     20 C          63.1867   84.3646   10.5574 C.3     1  UNL1        0.0036
     21 C          63.5030   84.0570    9.1238 C.3     1  UNL1        0.0002
     22 C          62.8443   84.8387    8.0261 C.3     1  UNL1        0.0000
     23 C          61.8695   85.9281    8.3619 C.3     1  UNL1        0.0002
     24 C          61.5533   86.2358    9.7955 C.3     1  UNL1        0.0036
     25 C          62.9023   84.6632   11.2154 C.3     1  UNL1        0.0036
     26 C          63.8454   83.5829   11.6552 C.3     1  UNL1        0.0402
     27 C          64.1616   83.2752   10.2216 C.3     1  UNL1        0.0036
@<TRIPOS>BOND
     1    13    14    1
     2    14    15    1
     3    14    16    1
     4    14    12    1
     5    12     8    1
     6     8     9    2
     7     8    10   am
     8     1    10    1
     9     1     2    1
    10     2     3    1
    11     3     4    1
    12     4     5   am
    13     5     6    2
    14     5    17    1
    15    17    18    1
    16    18    19    1
    17    19    20    1
    18    20    21    1
    19    21    22    1
    20    22    23    1
    21    23    24    1
    22    23    25    1
    23    25    26    1
    24    26    27    1
    25     4     7    1
    26     7     1    1
    27    26    18    1
    28    24    19    1
    29    27    21    1
    30    10    11    1
@<TRIPOS>MOLECULE
*****
 27 30 0 0 0
SMALL
GASTEIGER

@<TRIPOS>ATOM
      1 C          62.6971   89.4926   11.3390 C.3     1  UNL1        0.0964
      2 C          62.6895   90.7471   10.5167 C.3     1  UNL1        0.0430
      3 C          63.5986   91.7403   11.1781 C.3     1  UNL1        0.0985
      4 N          64.1679   91.0994   12.4090 N.am    1  UNL1       -0.2443
      5 C          65.1263   91.7361   13.3716 C.2     1  UNL1        0.4048
      6 O          65.6119   90.9679   14.5649 O.2     1  UNL1       -0.2262
      7 C          63.6108   89.7103   12.5085 C.3     1  UNL1        0.1163
      8 C          60.9767   88.2000    9.8832 C.2     1  UNL1        0.4014
      9 O          60.7979   89.4123    9.0182 O.2     1  UNL1       -0.2264
     10 N          61.9263   88.2402   11.0436 N.am    1  UNL1       -0.2705
     11 H          62.0437   87.4445   11.6114 H       1  UNL1        0.1527
     12 O          60.2059   86.9476    9.5878 O.3     1  UNL1       -0.4419
     13 C          61.8103   85.7771    8.8422 C.3     1  UNL1        0.0437
     14 C          60.4655   86.1885    8.3204 C.3     1  UNL1        0.1378
     15 C          59.1207   86.5999    7.7986 C.3     1  UNL1        0.0437
     16 C          60.7250   85.4294    7.0530 C.3     1  UNL1        0.0437
     17 O          65.5988   93.1408   13.1408 O.3     1  UNL1       -0.4383
     18 C          66.2811   93.5008   11.8543 C.3     1  UNL1        0.1702
     19 C          66.1899   94.9007   11.3232 C.3     1  UNL1        0.0402
     20 C          66.9633   93.8608   10.5678 C.3     1  UNL1        0.0036
     21 C          67.6455   94.2208    9.2814 C.3     1  UNL1        0.0002
     22 C          67.5543   95.6207    8.7503 C.3     1  UNL1        0.0000
     23 C          66.7810   96.6605    9.5056 C.3     1  UNL1        0.0002
     24 C          66.0988   96.3005   10.7920 C.3     1  UNL1        0.0036
     25 C          66.5553   93.8695   11.2284 C.3     1  UNL1        0.0036
     26 C          67.0545   92.4610   11.0990 C.3     1  UNL1        0.0402
     27 C          67.7367   92.8210    9.8125 C.3     1  UNL1        0.0036
@<TRIPOS>BOND
     1    13    14    1
     2    14    15    1
     3    14    16    1
     4    14    12    1
     5    12     8    1
     6     8     9    2
     7     8    10   am
     8     1    10    1
     9     1     2    1
    10     2     3    1
    11     3     4    1
    12     4     5   am
    13     5     6    2
    14     5    17    1
    15    17    18    1
    16    18    19    1
    17    19    20    1
    18    20    21    1
    19    21    22    1
    20    22    23    1
    21    23    24    1
    22    23    25    1
    23    25    26    1
    24    26    27    1
    25     4     7    1
    26     7     1    1
    27    26    18    1
    28    24    19    1
    29    27    21    1
    30    10    11    1
@<TRIPOS>MOLECULE
*****
 27 30 0 0 0
SMALL
GASTEIGER

@<TRIPOS>ATOM
      1 C          64.0795   86.1676   14.0620 C.3     1  UNL1        0.0964
      2 C          64.4170   87.1619   15.1333 C.3     1  UNL1        0.0430
      3 C          64.1213   88.5334   14.6025 C.3     1  UNL1        0.0985
      4 N          63.6010   88.3866   13.2033 N.am    1  UNL1       -0.2443
      5 C          63.1804   89.5057   12.2972 C.2     1  UNL1        0.4048
      6 O          62.6778   89.2041   10.9165 O.2     1  UNL1       -0.2262
      7 C          63.5752   86.9245   12.8692 C.3     1  UNL1        0.1163
      8 C          63.1011   83.8551   14.7291 C.2     1  UNL1        0.4014
      9 O          61.8389   84.5220   15.1894 O.2     1  UNL1       -0.2264
     10 N          64.2214   84.6780   14.1654 N.am    1  UNL1       -0.2705
     11 H          65.0499   84.2403   13.8632 H       1  UNL1        0.1527
     12 O          63.2430   82.3654   14.8324 O.3     1  UNL1       -0.4419
     13 C          64.2750   81.7139   13.0973 C.3     1  UNL1        0.0437
     14 C          62.9011   81.4962   13.6588 C.3     1  UNL1        0.1378
     15 C          61.5273   81.2785   14.2202 C.3     1  UNL1        0.0437
     16 C          62.5592   80.6270   12.4851 C.3     1  UNL1        0.0437
     17 O          63.2624   90.9262   12.7719 O.3     1  UNL1       -0.4383
     18 C          64.6004   91.5749   12.9696 C.3     1  UNL1        0.1702
     19 C          65.1248   91.8048   14.3560 C.3     1  UNL1        0.0402
     20 C          65.9383   92.2235   13.1674 C.3     1  UNL1        0.0036
     21 C          67.2762   92.8722   13.3652 C.3     1  UNL1        0.0002
     22 C          67.8006   93.1022   14.7516 C.3     1  UNL1        0.0000
     23 C          66.9871   92.6835   15.9402 C.3     1  UNL1        0.0002
     24 C          65.6492   92.0348   15.7425 C.3     1  UNL1        0.0036
     25 C          65.2470   91.8846   13.2677 C.3     1  UNL1        0.0036
     26 C          65.4139   91.9936   11.7810 C.3     1  UNL1        0.0402
     27 C          66.7518   92.6422   11.9788 C.3     1  UNL1        0.0036
@<TRIPOS>BOND
     1    13    14    1
     2    14    15    1
     3    14    16    1
     4    14    12    1
     5    12     8    1
     6     8     9    2
     7     8    10   am
     8     1    10    1
     9     1     2    1
    10     2     3    1
    11     3     4    1
    12     4     5   am
    13     5     6    2
    14     5    17    1
    15    17    18    1
    16    18    19    1
    17    19    20    1
    18    20    21    1
    19    21    22    1
    20    22    23    1
    21    23    24    1
    22    23    25    1
    23    25    26    1
    24    26    27    1
    25     4     7    1
    26     7     1    1
    27    26    18    1
    28    24    19    1
    29    27    21    1
    30    10    11    1
@<TRIPOS>MOLECULE
*****
 27 30 0 0 0
SMALL
GASTEIGER

@<TRIPOS>ATOM
      1 C          63.2472   88.8725   12.2819 C.3     1  UNL1        0.0964
      2 C          62.8022   89.9933   11.3897 C.3     1  UNL1        0.0430
      3 C          63.5479   91.2308   11.7930 C.3     1  UNL1        0.0985
      4 N          64.4536   90.8748   12.9345 N.am    1  UNL1       -0.2443
      5 C          65.3823   91.8119   13.6484 C.2     1  UNL1        0.4048
      6 O          66.2319   91.3098   14.7780 O.2     1  UNL1       -0.2262
      7 C          64.2678   89.4174   13.2366 C.3     1  UNL1        0.1163
      8 C          62.3211   86.8615   10.9225 C.2     1  UNL1        0.4014
      9 O          62.3745   87.6841    9.6693 O.2     1  UNL1       -0.2264
     10 N          62.7575   87.4558   12.2288 N.am    1  UNL1       -0.2705
     11 H          62.7224   86.9159   13.0513 H       1  UNL1        0.1527
     12 O          61.8314   85.4447   10.8693 O.3     1  UNL1       -0.4419
     13 C          62.5132   84.0081   12.2734 C.3     1  UNL1        0.0437
     14 C          62.8144   84.3122   10.8357 C.3     1  UNL1        0.1378
     15 C          63.1155   84.6163    9.3980 C.3     1  UNL1        0.0437
     16 C          63.7973   83.1797   10.8020 C.3     1  UNL1        0.0437
     17 O          65.4612   93.2509   13.2327 O.3     1  UNL1       -0.4383
     18 C          66.1416   93.6246   11.9491 C.3     1  UNL1        0.1702
     19 C          66.1492   95.0534   11.4926 C.3     1  UNL1        0.0402
     20 C          66.8219   93.9982   10.6656 C.3     1  UNL1        0.0036
     21 C          67.5022   94.3719    9.3820 C.3     1  UNL1        0.0002
     22 C          67.5098   95.8007    8.9255 C.3     1  UNL1        0.0000
     23 C          66.8371   96.8559    9.7526 C.3     1  UNL1        0.0002
     24 C          66.1568   96.4822   11.0361 C.3     1  UNL1        0.0036
     25 C          66.4303   94.0035   11.3360 C.3     1  UNL1        0.0036
     26 C          66.8143   92.5694   11.1221 C.3     1  UNL1        0.0402
     27 C          67.4946   92.9431    9.8385 C.3     1  UNL1        0.0036
@<TRIPOS>BOND
     1    13    14    1
     2    14    15    1
     3    14    16    1
     4    14    12    1
     5    12     8    1
     6     8     9    2
     7     8    10   am
     8     1    10    1
     9     1     2    1
    10     2     3    1
    11     3     4    1
    12     4     5   am
    13     5     6    2
    14     5    17    1
    15    17    18    1
    16    18    19    1
    17    19    20    1
    18    20    21    1
    19    21    22    1
    20    22    23    1
    21    23    24    1
    22    23    25    1
    23    25    26    1
    24    26    27    1
    25     4     7    1
    26     7     1    1
    27    26    18    1
    28    24    19    1
    29    27    21    1
    30    10    11    1
@<TRIPOS>MOLECULE
*****
 27 30 0 0 0
SMALL
GASTEIGER

@<TRIPOS>ATOM
      1 C          64.7269   90.6784   13.8978 C.3     1  UNL1        0.0964
      2 C          64.5555   89.2406   14.2894 C.3     1  UNL1        0.0430
      3 C          63.3358   88.7129   13.5935 C.3     1  UNL1        0.0985
      4 N          62.7535   89.8247   12.7719 N.am    1  UNL1       -0.2443
      5 C          61.5269   89.7370   11.9130 C.2     1  UNL1        0.4048
      6 O          61.0620   90.9384   11.1445 O.2     1  UNL1       -0.2262
      7 C          63.6132   91.0394   12.9600 C.3     1  UNL1        0.1163
      8 C          66.6192   92.3763   13.3625 C.2     1  UNL1        0.4014
      9 O          66.3252   92.2420   11.8977 O.2     1  UNL1       -0.2264
     10 N          65.8199   91.5944   14.3625 N.am    1  UNL1       -0.2705
     11 H          66.0129   91.6825   15.3239 H       1  UNL1        0.1527
     12 O          67.7122   93.2923   13.8271 O.3     1  UNL1       -0.4419
     13 C          67.7616   93.8056   15.8849 C.3     1  UNL1        0.0437
     14 C          68.5684   92.9055   14.9965 C.3     1  UNL1        0.1378
     15 C          69.3751   92.0055   14.1082 C.3     1  UNL1        0.0437
     16 C          69.4245   92.5188   16.1658 C.3     1  UNL1        0.0437
     17 O          60.7651   88.4480   11.8227 O.3     1  UNL1       -0.4383
     18 C          61.0309   87.4973   10.6933 C.3     1  UNL1        0.1702
     19 C          60.0837   87.4285    9.5322 C.3     1  UNL1        0.0402
     20 C          61.2966   86.5466    9.5639 C.3     1  UNL1        0.0036
     21 C          61.5624   85.5960    8.4345 C.3     1  UNL1        0.0002
     22 C          60.6152   85.5272    7.2734 C.3     1  UNL1        0.0000
     23 C          59.4023   86.4091    7.2417 C.3     1  UNL1        0.0002
     24 C          59.1365   87.3598    8.3711 C.3     1  UNL1        0.0036
     25 C          60.9967   87.0849   10.0363 C.3     1  UNL1        0.0036
     26 C          62.2438   86.6154   10.7249 C.3     1  UNL1        0.0402
     27 C          62.5096   85.6647    9.5955 C.3     1  UNL1        0.0036
@<TRIPOS>BOND
     1    13    14    1
     2    14    15    1
     3    14    16    1
     4    14    12    1
     5    12     8    1
     6     8     9    2
     7     8    10   am
     8     1    10    1
     9     1     2    1
    10     2     3    1
    11     3     4    1
    12     4     5   am
    13     5     6    2
    14     5    17    1
    15    17    18    1
    16    18    19    1
    17    19    20    1
    18    20    21    1
    19    21    22    1
    20    22    23    1
    21    23    24    1
    22    23    25    1
    23    25    26    1
    24    26    27    1
    25     4     7    1
    26     7     1    1
    27    26    18    1
    28    24    19    1
    29    27    21    1
    30    10    11    1
