@<TRIPOS>MOLECULE
*****
 45 46 0 0 0
SMALL
GASTEIGER

@<TRIPOS>ATOM
      1 C          65.7730   92.1733   15.5368 C.3     1  UNL1        0.1540
      2 C          66.8457   93.0276   14.9289 C.3     1  UNL1        0.0646
      3 C          68.2594   92.5294   14.8729 C.3     1  UNL1        0.1448
      4 O          68.8247   92.0207   13.5800 O.3     1  UNL1       -0.3537
      5 C          67.9135   91.7387   12.4224 C.3     1  UNL1        0.1422
      6 C          68.4293   91.8472   11.0180 C.3     1  UNL1        0.0321
      7 C          67.5419   92.3795    9.9320 C.3     1  UNL1        0.0026
      8 C          66.6697   93.5716   10.1931 C.3     1  UNL1        0.0001
      9 C          65.2297   93.3800   10.5666 C.3     1  UNL1        0.0000
     10 C          64.7210   92.0130   10.9165 C.3     1  UNL1        0.0000
     11 C          63.4422   91.5117   10.3139 C.3     1  UNL1        0.0000
     12 C          63.1662   90.0383   10.2585 C.3     1  UNL1        0.0000
     13 C          62.4086   89.3747   11.3701 C.3     1  UNL1        0.0000
     14 C          61.0584   89.8911   11.7702 C.3     1  UNL1        0.0000
     15 C          59.8807   89.6935   10.8625 C.3     1  UNL1        0.0000
     16 C          60.0704   89.7044    9.3746 C.3     1  UNL1        0.0000
     17 C          59.8381   88.4538    8.5797 C.3     1  UNL1        0.0003
     18 C          60.3837   87.1439    9.0658 C.3     1  UNL1        0.0088
     19 C          61.0205   86.1910    8.0978 C.3     1  UNL1        0.1033
     20 C          62.3989   85.6622    8.3628 C.3     1  UNL1        0.3978
     21 F          63.7774   85.1334    8.6277 F       1  UNL1       -0.1700
     22 F          62.3082   84.8093    7.1322 F       1  UNL1       -0.1700
     23 F          62.4895   86.5152    9.5934 F       1  UNL1       -0.1700
     24 O          65.1814   91.0405   14.7516 O.3     1  UNL1       -0.2925
     25 P          63.9036   90.3996   15.2060 P.3     1  UNL1        0.3697
     26 O          63.4617   91.7033   15.8019 O.2     1  UNL1       -0.2553
     27 O          62.6258   89.7588   15.6605 O.3     1  UNL1       -0.3218
     28 H          62.0810   90.4155   16.1218 H       1  UNL1        0.2198
     29 C          64.3455   89.0959   14.6101 C.3     1  UNL1        0.2579
     30 O          63.9920   87.8043   15.2858 O.3     1  UNL1       -0.3426
     31 C          65.6398   85.8216   14.9635 C.3     1  UNL1        0.0342
     32 C          64.3414   86.4980   14.6366 C.3     1  UNL1        0.1387
     33 C          63.3925   85.8680   13.6605 C.3     1  UNL1        0.1384
     34 N          63.0360   84.4169   13.7910 N.ar    1  UNL1       -0.2918
     35 C          62.4753   83.7533   15.0139 C.ar    1  UNL1        0.1798
     36 N          62.2704   82.3008   14.7002 N.ar    1  UNL1       -0.2195
     37 C          62.7043   82.0668   13.2835 C.ar    1  UNL1        0.1481
     38 C          62.7297   80.8318   12.4327 C.ar    1  UNL1        0.1480
     39 N          62.2566   79.5240   12.9946 N.pl3   1  UNL1       -0.3413
     40 N          63.2283   80.9046   11.0199 N.ar    1  UNL1       -0.2078
     41 C          63.7015   82.2124   10.4579 C.ar    1  UNL1        0.2015
     42 N          63.6761   83.4474   11.3088 N.ar    1  UNL1       -0.2048
     43 C          63.1775   83.3746   12.7216 C.ar    1  UNL1        0.1674
     44 H          61.9293   79.4762   13.9219 H       1  UNL1        0.1438
     45 H          62.2733   78.7134   12.4361 H       1  UNL1        0.1438
@<TRIPOS>BOND
     1    32    31    1
     2    32    33    1
     3    33    34    1
     4    34    35   ar
     5    35    36   ar
     6    36    37   ar
     7    37    38   ar
     8    38    39    1
     9    38    40   ar
    10    40    41   ar
    11    41    42   ar
    12    42    43   ar
    13    32    30    1
    14    30    29    1
    15    29    25    1
    16    25    26    2
    17    25    27    1
    18    25    24    1
    19    24     1    1
    20     1     2    1
    21     2     3    1
    22     3     4    1
    23     4     5    1
    24     5     6    1
    25     6     7    1
    26     7     8    1
    27     8     9    1
    28     9    10    1
    29    10    11    1
    30    11    12    1
    31    12    13    1
    32    13    14    1
    33    14    15    1
    34    15    16    1
    35    16    17    1
    36    17    18    1
    37    18    19    1
    38    19    20    1
    39    20    21    1
    40    20    22    1
    41    20    23    1
    42    43    34   ar
    43    43    37   ar
    44    39    44    1
    45    39    45    1
    46    27    28    1
@<TRIPOS>MOLECULE
*****
 45 46 0 0 0
SMALL
GASTEIGER

@<TRIPOS>ATOM
      1 C          63.0215   85.7605   16.7835 C.3     1  UNL1        0.1540
      2 C          62.3404   86.9946   17.2965 C.3     1  UNL1        0.0646
      3 C          63.0419   88.3190   17.2348 C.3     1  UNL1        0.1448
      4 O          62.6910   89.3043   16.1596 O.3     1  UNL1       -0.3537
      5 C          63.7687   89.8826   15.2914 C.3     1  UNL1        0.1422
      6 C          63.7527   89.6367   13.8118 C.3     1  UNL1        0.0321
      7 C          63.5701   90.7840   12.8628 C.3     1  UNL1        0.0026
      8 C          63.2513   90.5210   11.4208 C.3     1  UNL1        0.0001
      9 C          63.5869   91.5469   10.3793 C.3     1  UNL1        0.0000
     10 C          64.9240   92.2266   10.3994 C.3     1  UNL1        0.0000
     11 C          65.0680   93.5798   11.0302 C.3     1  UNL1        0.0000
     12 C          66.1260   94.5253   10.5437 C.3     1  UNL1        0.0000
     13 C          66.8952   94.2118    9.2947 C.3     1  UNL1        0.0000
     14 C          68.3566   93.8839    9.3762 C.3     1  UNL1        0.0000
     15 C          68.8002   92.4543    9.4727 C.3     1  UNL1        0.0000
     16 C          68.3218   91.5954   10.6056 C.3     1  UNL1        0.0000
     17 C          68.5476   92.0298   12.0234 C.3     1  UNL1        0.0003
     18 C          67.4263   91.9588   13.0172 C.3     1  UNL1        0.0088
     19 C          67.7284   91.8314   14.4810 C.3     1  UNL1        0.1033
     20 C          68.0707   93.0505   15.2851 C.3     1  UNL1        0.3978
     21 F          68.4130   94.2696   16.0892 F       1  UNL1       -0.1700
     22 F          68.9861   92.2278   16.1426 F       1  UNL1       -0.1700
     23 F          67.1552   93.8731   14.4275 F       1  UNL1       -0.1700
     24 O          63.2548   85.5894   15.3117 O.3     1  UNL1       -0.2925
     25 P          64.5681   85.0595   14.8171 P.3     1  UNL1        0.3697
     26 O          65.1727   86.4248   14.9599 O.2     1  UNL1       -0.2553
     27 O          65.8813   84.5296   14.3225 O.3     1  UNL1       -0.3218
     28 H          66.5330   85.2478   14.3029 H       1  UNL1        0.2198
     29 C          63.9634   83.6942   14.6743 C.3     1  UNL1        0.2579
     30 O          62.7980   83.4825   13.7540 O.3     1  UNL1       -0.3426
     31 C          62.6020   81.9329   11.6779 C.3     1  UNL1        0.0342
     32 C          63.0314   83.2315   12.2937 C.3     1  UNL1        0.1387
     33 C          63.6942   84.2792   11.4492 C.3     1  UNL1        0.1384
     34 N          62.9407   84.9215   10.3224 N.ar    1  UNL1       -0.2918
     35 C          63.0757   84.5853    8.8668 C.ar    1  UNL1        0.1798
     36 N          62.1383   85.4688    8.0982 N.ar    1  UNL1       -0.2195
     37 C          61.4239   86.3509    9.0788 C.ar    1  UNL1        0.1481
     38 C          60.3859   87.4185    8.8976 C.ar    1  UNL1        0.1480
     39 N          59.8900   87.7568    7.5230 N.pl3   1  UNL1       -0.3413
     40 N          59.8439   88.1478   10.0910 N.ar    1  UNL1       -0.2078
     41 C          60.3398   87.8095   11.4656 C.ar    1  UNL1        0.2015
     42 N          61.3778   86.7419   11.6469 N.ar    1  UNL1       -0.2048
     43 C          61.9198   86.0127   10.4534 C.ar    1  UNL1        0.1674
     44 H          60.2458   87.2781    6.7397 H       1  UNL1        0.1438
     45 H          59.2087   88.4575    7.4040 H       1  UNL1        0.1438
@<TRIPOS>BOND
     1    32    31    1
     2    32    33    1
     3    33    34    1
     4    34    35   ar
     5    35    36   ar
     6    36    37   ar
     7    37    38   ar
     8    38    39    1
     9    38    40   ar
    10    40    41   ar
    11    41    42   ar
    12    42    43   ar
    13    32    30    1
    14    30    29    1
    15    29    25    1
    16    25    26    2
    17    25    27    1
    18    25    24    1
    19    24     1    1
    20     1     2    1
    21     2     3    1
    22     3     4    1
    23     4     5    1
    24     5     6    1
    25     6     7    1
    26     7     8    1
    27     8     9    1
    28     9    10    1
    29    10    11    1
    30    11    12    1
    31    12    13    1
    32    13    14    1
    33    14    15    1
    34    15    16    1
    35    16    17    1
    36    17    18    1
    37    18    19    1
    38    19    20    1
    39    20    21    1
    40    20    22    1
    41    20    23    1
    42    43    34   ar
    43    43    37   ar
    44    39    44    1
    45    39    45    1
    46    27    28    1
@<TRIPOS>MOLECULE
*****
 45 46 0 0 0
SMALL
GASTEIGER

@<TRIPOS>ATOM
      1 C          62.9411   90.6742   11.1605 C.3     1  UNL1        0.1540
      2 C          63.8119   91.6654   10.4469 C.3     1  UNL1        0.0646
      3 C          65.0536   92.1856   11.1083 C.3     1  UNL1        0.1448
      4 O          65.4242   93.6330   10.9750 O.3     1  UNL1       -0.3537
      5 C          66.3587   94.2622   11.9653 C.3     1  UNL1        0.1422
      6 C          66.3058   93.8573   13.4086 C.3     1  UNL1        0.0321
      7 C          67.2806   92.8490   13.9410 C.3     1  UNL1        0.0026
      8 C          66.7885   91.5274   14.4520 C.3     1  UNL1        0.0001
      9 C          65.4136   91.4158   15.0410 C.3     1  UNL1        0.0000
     10 C          64.4168   90.4667   14.4445 C.3     1  UNL1        0.0000
     11 C          64.0824   89.1875   15.1527 C.3     1  UNL1        0.0000
     12 C          63.0696   89.1854   16.2592 C.3     1  UNL1        0.0000
     13 C          63.1676   88.1754   17.3638 C.3     1  UNL1        0.0000
     14 C          62.3507   86.9187   17.3057 C.3     1  UNL1        0.0000
     15 C          62.9786   85.6367   16.8452 C.3     1  UNL1        0.0000
     16 C          64.0759   85.6639   15.8228 C.3     1  UNL1        0.0000
     17 C          64.1279   84.6167   14.7502 C.3     1  UNL1        0.0003
     18 C          63.7681   83.1962   15.0707 C.3     1  UNL1        0.0088
     19 C          62.4396   82.6446   14.6452 C.3     1  UNL1        0.1033
     20 C          62.3616   81.2959   13.9933 C.3     1  UNL1        0.3978
     21 F          62.2835   79.9472   13.3415 F       1  UNL1       -0.1700
     22 F          63.8586   81.2024   14.0074 F       1  UNL1       -0.1700
     23 F          60.8645   81.3894   13.9793 F       1  UNL1       -0.1700
     24 O          61.4535   90.7103   10.9719 O.3     1  UNL1       -0.2925
     25 P          60.5948   89.6380   11.5743 P.3     1  UNL1        0.3697
     26 O          61.4392   89.6583   12.8139 O.2     1  UNL1       -0.2553
     27 O          59.7361   88.5658   12.1768 O.3     1  UNL1       -0.3218
     28 H          60.0659   88.3470   13.0624 H       1  UNL1        0.2198
     29 C          59.7504   89.6178   10.3348 C.3     1  UNL1        0.2579
     30 O          60.4001   89.5236    8.9861 O.3     1  UNL1       -0.3426
     31 C          59.3582   89.3952    6.6095 C.3     1  UNL1        0.0342
     32 C          59.7496   88.7270    7.8942 C.3     1  UNL1        0.1387
     33 C          59.4905   87.2621    8.0869 C.3     1  UNL1        0.1384
     34 N          60.6402   86.3034    8.1833 N.ar    1  UNL1       -0.2918
     35 C          61.3010   85.6008    7.0346 C.ar    1  UNL1        0.1798
     36 N          62.4000   84.7422    7.5868 N.ar    1  UNL1       -0.2195
     37 C          62.4185   84.9143    9.0768 C.ar    1  UNL1        0.1481
     38 C          63.2852   84.3170   10.1454 C.ar    1  UNL1        0.1480
     39 N          64.3729   83.3521    9.7767 N.pl3   1  UNL1       -0.3413
     40 N          63.0643   84.6847   11.5827 N.ar    1  UNL1       -0.2078
     41 C          61.9766   85.6496   11.9514 C.ar    1  UNL1        0.2015
     42 N          61.1099   86.2468   10.8828 N.ar    1  UNL1       -0.2048
     43 C          61.3309   85.8792    9.4454 C.ar    1  UNL1        0.1674
     44 H          64.5179   83.1108    8.8333 H       1  UNL1        0.1438
     45 H          64.9418   82.9601   10.4781 H       1  UNL1        0.1438
@<TRIPOS>BOND
     1    32    31    1
     2    32    33    1
     3    33    34    1
     4    34    35   ar
     5    35    36   ar
     6    36    37   ar
     7    37    38   ar
     8    38    39    1
     9    38    40   ar
    10    40    41   ar
    11    41    42   ar
    12    42    43   ar
    13    32    30    1
    14    30    29    1
    15    29    25    1
    16    25    26    2
    17    25    27    1
    18    25    24    1
    19    24     1    1
    20     1     2    1
    21     2     3    1
    22     3     4    1
    23     4     5    1
    24     5     6    1
    25     6     7    1
    26     7     8    1
    27     8     9    1
    28     9    10    1
    29    10    11    1
    30    11    12    1
    31    12    13    1
    32    13    14    1
    33    14    15    1
    34    15    16    1
    35    16    17    1
    36    17    18    1
    37    18    19    1
    38    19    20    1
    39    20    21    1
    40    20    22    1
    41    20    23    1
    42    43    34   ar
    43    43    37   ar
    44    39    44    1
    45    39    45    1
    46    27    28    1
@<TRIPOS>MOLECULE
*****
 45 46 0 0 0
SMALL
GASTEIGER

@<TRIPOS>ATOM
      1 C          65.7918   92.5900   12.4708 C.3     1  UNL1        0.1540
      2 C          66.3911   92.7986   13.8300 C.3     1  UNL1        0.0646
      3 C          66.3047   91.7137   14.8623 C.3     1  UNL1        0.1448
      4 O          65.2144   91.7435   15.8920 O.3     1  UNL1       -0.3537
      5 C          63.9015   91.0736   15.6138 C.3     1  UNL1        0.1422
      6 C          63.8670   89.6293   15.2103 C.3     1  UNL1        0.0321
      7 C          62.9195   88.6838   15.8875 C.3     1  UNL1        0.0026
      8 C          63.1480   88.2882   17.3162 C.3     1  UNL1        0.0001
      9 C          62.7709   86.9136   17.7834 C.3     1  UNL1        0.0000
     10 C          62.1363   85.9451   16.8297 C.3     1  UNL1        0.0000
     11 C          62.8459   84.6737   16.4691 C.3     1  UNL1        0.0000
     12 C          63.8763   84.6732   15.3791 C.3     1  UNL1        0.0000
     13 C          63.9569   85.8258   14.4225 C.3     1  UNL1        0.0000
     14 C          63.5922   85.6308   12.9807 C.3     1  UNL1        0.0000
     15 C          62.4861   84.6889   12.6076 C.3     1  UNL1        0.0000
     16 C          62.7748   83.4986   11.7415 C.3     1  UNL1        0.0000
     17 C          63.9781   82.6460   12.0153 C.3     1  UNL1        0.0003
     18 C          63.8212   81.3317   12.7210 C.3     1  UNL1        0.0088
     19 C          63.0960   81.2665   14.0325 C.3     1  UNL1        0.1033
     20 C          61.6255   80.9721   14.0626 C.3     1  UNL1        0.3978
     21 F          60.1550   80.6776   14.0926 F       1  UNL1       -0.1700
     22 F          61.3720   82.3035   14.7051 F       1  UNL1       -0.1700
     23 F          61.8791   79.6405   13.4200 F       1  UNL1       -0.1700
     24 O          64.6125   91.6784   12.3030 O.3     1  UNL1       -0.2925
     25 P          63.8526   91.6653   11.0098 P.3     1  UNL1        0.3697
     26 O          64.8350   92.6350   10.4227 O.2     1  UNL1       -0.2553
     27 O          63.0927   91.6523    9.7166 O.3     1  UNL1       -0.3218
     28 H          63.5279   92.2407    9.0799 H       1  UNL1        0.2198
     29 C          62.8702   90.6957   11.5968 C.3     1  UNL1        0.2579
     30 O          62.2254   89.6602   10.7239 O.3     1  UNL1       -0.3426
     31 C          59.8060   90.5902   10.9006 C.3     1  UNL1        0.0342
     32 C          60.7463   89.4253   10.8063 C.3     1  UNL1        0.1387
     33 C          60.2073   88.0254   10.7943 C.3     1  UNL1        0.1384
     34 N          60.1144   87.2686    9.5026 N.ar    1  UNL1       -0.2918
     35 C          58.9417   87.2616    8.5672 C.ar    1  UNL1        0.1798
     36 N          59.2804   86.3746    7.4060 N.ar    1  UNL1       -0.2195
     37 C          60.6623   85.8333    7.6236 C.ar    1  UNL1        0.1481
     38 C          61.5179   84.9088    6.8094 C.ar    1  UNL1        0.1480
     39 N          61.0025   84.3562    5.5136 N.pl3   1  UNL1       -0.3413
     40 N          62.8889   84.5368    7.2909 N.ar    1  UNL1       -0.2078
     41 C          63.4044   85.0893    8.5866 C.ar    1  UNL1        0.2015
     42 N          62.5488   86.0139    9.4009 N.ar    1  UNL1       -0.2048
     43 C          61.1778   86.3859    8.9194 C.ar    1  UNL1        0.1674
     44 H          60.1026   84.6004    5.1976 H       1  UNL1        0.1438
     45 H          61.5641   83.7494    4.9791 H       1  UNL1        0.1438
@<TRIPOS>BOND
     1    32    31    1
     2    32    33    1
     3    33    34    1
     4    34    35   ar
     5    35    36   ar
     6    36    37   ar
     7    37    38   ar
     8    38    39    1
     9    38    40   ar
    10    40    41   ar
    11    41    42   ar
    12    42    43   ar
    13    32    30    1
    14    30    29    1
    15    29    25    1
    16    25    26    2
    17    25    27    1
    18    25    24    1
    19    24     1    1
    20     1     2    1
    21     2     3    1
    22     3     4    1
    23     4     5    1
    24     5     6    1
    25     6     7    1
    26     7     8    1
    27     8     9    1
    28     9    10    1
    29    10    11    1
    30    11    12    1
    31    12    13    1
    32    13    14    1
    33    14    15    1
    34    15    16    1
    35    16    17    1
    36    17    18    1
    37    18    19    1
    38    19    20    1
    39    20    21    1
    40    20    22    1
    41    20    23    1
    42    43    34   ar
    43    43    37   ar
    44    39    44    1
    45    39    45    1
    46    27    28    1
@<TRIPOS>MOLECULE
*****
 45 46 0 0 0
SMALL
GASTEIGER

@<TRIPOS>ATOM
      1 C          62.9959   86.2805   17.2432 C.3     1  UNL1        0.1540
      2 C          62.8727   87.7439   17.5482 C.3     1  UNL1        0.0646
      3 C          63.1523   88.7589   16.4796 C.3     1  UNL1        0.1448
      4 O          63.0635   90.2228   16.7941 O.3     1  UNL1       -0.3537
      5 C          63.9775   91.1942   16.1079 C.3     1  UNL1        0.1422
      6 C          64.8899   90.7218   15.0150 C.3     1  UNL1        0.0321
      7 C          64.3769   90.5984   13.6108 C.3     1  UNL1        0.0026
      8 C          63.0183   90.0155   13.3571 C.3     1  UNL1        0.0001
      9 C          62.8149   89.0517   12.2259 C.3     1  UNL1        0.0000
     10 C          62.8749   89.5363   10.8076 C.3     1  UNL1        0.0000
     11 C          62.6397   90.9854   10.4996 C.3     1  UNL1        0.0000
     12 C          63.7796   91.8516   10.0521 C.3     1  UNL1        0.0000
     13 C          64.8005   92.3205   11.0459 C.3     1  UNL1        0.0000
     14 C          65.5351   93.6079   10.8160 C.3     1  UNL1        0.0000
     15 C          67.0197   93.5964   10.6023 C.3     1  UNL1        0.0000
     16 C          67.7522   92.2917   10.4969 C.3     1  UNL1        0.0000
     17 C          68.4836   91.7438   11.6864 C.3     1  UNL1        0.0003
     18 C          67.8207   91.7265   13.0318 C.3     1  UNL1        0.0088
     19 C          68.4118   92.5057   14.1693 C.3     1  UNL1        0.1033
     20 C          67.5786   92.8194   15.3765 C.3     1  UNL1        0.3978
     21 F          66.7454   93.1331   16.5837 F       1  UNL1       -0.1700
     22 F          68.5486   92.0696   16.2408 F       1  UNL1       -0.1700
     23 F          66.6086   93.5692   14.5121 F       1  UNL1       -0.1700
     24 O          62.9642   85.8055   15.8208 O.3     1  UNL1       -0.2925
     25 P          64.1913   85.2027   15.2037 P.3     1  UNL1        0.3697
     26 O          64.5986   86.5534   14.6942 O.2     1  UNL1       -0.2553
     27 O          65.4185   84.5999   14.5867 O.3     1  UNL1       -0.3218
     28 H          65.9313   85.2935   14.1430 H       1  UNL1        0.2198
     29 C          63.7840   83.8520   15.7132 C.3     1  UNL1        0.2579
     30 O          62.4944   83.2361   15.2576 O.3     1  UNL1       -0.3426
     31 C          61.3156   81.2283   14.1046 C.3     1  UNL1        0.0342
     32 C          62.5085   82.1263   14.2486 C.3     1  UNL1        0.1387
     33 C          63.7155   81.9145   13.3834 C.3     1  UNL1        0.1384
     34 N          63.7683   82.5148   12.0098 N.ar    1  UNL1       -0.2918
     35 C          64.5322   81.9713   10.8388 C.ar    1  UNL1        0.1798
     36 N          64.3025   82.8847    9.6713 N.ar    1  UNL1       -0.2195
     37 C          63.3967   83.9926   10.1207 C.ar    1  UNL1        0.1481
     38 C          62.8298   85.1800    9.4006 C.ar    1  UNL1        0.1480
     39 N          63.1600   85.4086    7.9554 N.pl3   1  UNL1       -0.3413
     40 N          61.9328   86.1389   10.1258 N.ar    1  UNL1       -0.2078
     41 C          61.6026   85.9103   11.5710 C.ar    1  UNL1        0.2015
     42 N          62.1695   84.7229   12.2911 N.ar    1  UNL1       -0.2048
     43 C          63.0665   83.7640   11.5659 C.ar    1  UNL1        0.1674
     44 H          63.7487   84.7793    7.4794 H       1  UNL1        0.1438
     45 H          62.7879   86.1880    7.4827 H       1  UNL1        0.1438
@<TRIPOS>BOND
     1    32    31    1
     2    32    33    1
     3    33    34    1
     4    34    35   ar
     5    35    36   ar
     6    36    37   ar
     7    37    38   ar
     8    38    39    1
     9    38    40   ar
    10    40    41   ar
    11    41    42   ar
    12    42    43   ar
    13    32    30    1
    14    30    29    1
    15    29    25    1
    16    25    26    2
    17    25    27    1
    18    25    24    1
    19    24     1    1
    20     1     2    1
    21     2     3    1
    22     3     4    1
    23     4     5    1
    24     5     6    1
    25     6     7    1
    26     7     8    1
    27     8     9    1
    28     9    10    1
    29    10    11    1
    30    11    12    1
    31    12    13    1
    32    13    14    1
    33    14    15    1
    34    15    16    1
    35    16    17    1
    36    17    18    1
    37    18    19    1
    38    19    20    1
    39    20    21    1
    40    20    22    1
    41    20    23    1
    42    43    34   ar
    43    43    37   ar
    44    39    44    1
    45    39    45    1
    46    27    28    1
@<TRIPOS>MOLECULE
*****
 45 46 0 0 0
SMALL
GASTEIGER

@<TRIPOS>ATOM
      1 C          66.5061   93.7909   13.9191 C.3     1  UNL1        0.1540
      2 C          67.5873   93.2569   14.8112 C.3     1  UNL1        0.0646
      3 C          67.2403   92.3279   15.9366 C.3     1  UNL1        0.1448
      4 O          66.1374   92.6829   16.8893 O.3     1  UNL1       -0.3537
      5 C          64.7057   92.4965   16.4823 C.3     1  UNL1        0.1422
      6 C          64.2451   91.1745   15.9438 C.3     1  UNL1        0.0321
      7 C          63.4460   90.2483   16.8120 C.3     1  UNL1        0.0026
      8 C          62.9704   88.9338   16.2679 C.3     1  UNL1        0.0001
      9 C          63.0308   87.7024   17.1223 C.3     1  UNL1        0.0000
     10 C          63.4029   86.3836   16.5121 C.3     1  UNL1        0.0000
     11 C          64.3899   86.3311   15.3838 C.3     1  UNL1        0.0000
     12 C          64.0625   85.5658   14.1360 C.3     1  UNL1        0.0000
     13 C          63.0266   84.4816   14.1711 C.3     1  UNL1        0.0000
     14 C          63.3561   83.1486   14.7747 C.3     1  UNL1        0.0000
     15 C          62.2758   82.1268   14.9717 C.3     1  UNL1        0.0000
     16 C          61.5742   81.5385   13.7836 C.3     1  UNL1        0.0000
     17 C          62.0922   80.2793   13.1542 C.3     1  UNL1        0.0003
     18 C          63.1551   80.3509   12.0983 C.3     1  UNL1        0.0088
     19 C          63.0862   81.4069   11.0351 C.3     1  UNL1        0.1033
     20 C          64.1195   82.4933   10.9891 C.3     1  UNL1        0.3978
     21 F          65.1527   83.5798   10.9430 F       1  UNL1       -0.1700
     22 F          64.7096   81.9864   12.2715 F       1  UNL1       -0.1700
     23 F          63.5292   83.0002    9.7065 F       1  UNL1       -0.1700
     24 O          65.7298   92.8564   13.0394 O.3     1  UNL1       -0.2925
     25 P          65.6485   93.1096   11.5632 P.3     1  UNL1        0.3697
     26 O          66.6583   94.2107   11.6965 O.2     1  UNL1       -0.2553
     27 O          65.5672   93.3628   10.0870 O.3     1  UNL1       -0.3218
     28 H          66.1653   94.0887    9.8500 H       1  UNL1        0.2198
     29 C          64.6387   92.0085   11.4299 C.3     1  UNL1        0.2579
     30 O          63.7612   91.6507   12.5927 O.3     1  UNL1       -0.3426
     31 C          63.7654   89.0741   12.9257 C.3     1  UNL1        0.0342
     32 C          63.0296   90.3413   12.6053 C.3     1  UNL1        0.1387
     33 C          61.5620   90.2991   12.2974 C.3     1  UNL1        0.1384
     34 N          61.0722   89.5777   11.0769 N.ar    1  UNL1       -0.2918
     35 C          60.2901   90.1832    9.9492 C.ar    1  UNL1        0.1798
     36 N          60.0131   89.1038    8.9452 N.ar    1  UNL1       -0.2195
     37 C          60.6240   87.8311    9.4523 C.ar    1  UNL1        0.1481
     38 C          60.6688   86.4435    8.8846 C.ar    1  UNL1        0.1480
     39 N          60.0142   86.1506    7.5671 N.pl3   1  UNL1       -0.3413
     40 N          61.3682   85.3487    9.6343 N.ar    1  UNL1       -0.2078
     41 C          62.0229   85.6416   10.9518 C.ar    1  UNL1        0.2015
     42 N          61.9781   87.0292   11.5195 N.ar    1  UNL1       -0.2048
     43 C          61.2786   88.1240   10.7697 C.ar    1  UNL1        0.1674
     44 H          59.5551   86.8692    7.0750 H       1  UNL1        0.1438
     45 H          60.0436   85.2398    7.1945 H       1  UNL1        0.1438
@<TRIPOS>BOND
     1    32    31    1
     2    32    33    1
     3    33    34    1
     4    34    35   ar
     5    35    36   ar
     6    36    37   ar
     7    37    38   ar
     8    38    39    1
     9    38    40   ar
    10    40    41   ar
    11    41    42   ar
    12    42    43   ar
    13    32    30    1
    14    30    29    1
    15    29    25    1
    16    25    26    2
    17    25    27    1
    18    25    24    1
    19    24     1    1
    20     1     2    1
    21     2     3    1
    22     3     4    1
    23     4     5    1
    24     5     6    1
    25     6     7    1
    26     7     8    1
    27     8     9    1
    28     9    10    1
    29    10    11    1
    30    11    12    1
    31    12    13    1
    32    13    14    1
    33    14    15    1
    34    15    16    1
    35    16    17    1
    36    17    18    1
    37    18    19    1
    38    19    20    1
    39    20    21    1
    40    20    22    1
    41    20    23    1
    42    43    34   ar
    43    43    37   ar
    44    39    44    1
    45    39    45    1
    46    27    28    1
@<TRIPOS>MOLECULE
*****
 45 46 0 0 0
SMALL
GASTEIGER

@<TRIPOS>ATOM
      1 C          64.7813   91.7687   16.8372 C.3     1  UNL1        0.1540
      2 C          65.6231   92.6947   16.0104 C.3     1  UNL1        0.0646
      3 C          67.1166   92.5548   16.0137 C.3     1  UNL1        0.1448
      4 O          67.8385   92.1897   14.7506 O.3     1  UNL1       -0.3537
      5 C          67.0617   91.8813   13.5051 C.3     1  UNL1        0.1422
      6 C          67.5851   92.3151   12.1680 C.3     1  UNL1        0.0321
      7 C          66.6577   92.9333   11.1640 C.3     1  UNL1        0.0026
      8 C          65.1745   92.8811   11.3815 C.3     1  UNL1        0.0001
      9 C          64.3127   92.0500   10.4778 C.3     1  UNL1        0.0000
     10 C          63.6871   90.7870   10.9910 C.3     1  UNL1        0.0000
     11 C          62.6678   90.0641   10.1613 C.3     1  UNL1        0.0000
     12 C          61.2053   90.2625   10.4292 C.3     1  UNL1        0.0000
     13 C          60.1858   89.5480    9.5925 C.3     1  UNL1        0.0000
     14 C          60.0910   88.0518    9.6410 C.3     1  UNL1        0.0000
     15 C          60.4183   87.3203   10.9090 C.3     1  UNL1        0.0000
     16 C          61.7764   86.7111   11.0942 C.3     1  UNL1        0.0000
     17 C          62.2745   85.6802   10.1251 C.3     1  UNL1        0.0003
     18 C          62.4131   86.0224    8.6713 C.3     1  UNL1        0.0088
     19 C          62.8448   84.9719    7.6913 C.3     1  UNL1        0.1033
     20 C          61.9873   84.6587    6.5012 C.3     1  UNL1        0.3978
     21 F          61.1297   84.3456    5.3110 F       1  UNL1       -0.1700
     22 F          60.7770   85.1361    7.2476 F       1  UNL1       -0.1700
     23 F          63.1977   84.1814    5.7547 F       1  UNL1       -0.1700
     24 O          63.4946   91.2305   16.2851 O.3     1  UNL1       -0.2925
     25 P          63.5189   90.1693   15.2252 P.3     1  UNL1        0.3697
     26 O          63.5734   91.2292   14.1652 O.2     1  UNL1       -0.2553
     27 O          63.5431   89.1081   14.1654 O.3     1  UNL1       -0.3218
     28 H          63.5816   89.5255   13.2907 H       1  UNL1        0.2198
     29 C          63.4643   89.1094   16.2853 C.3     1  UNL1        0.2579
     30 O          63.3662   87.6640   15.8964 O.3     1  UNL1       -0.3426
     31 C          62.7018   87.0517   18.3323 C.3     1  UNL1        0.0342
     32 C          62.9489   86.6410   16.9109 C.3     1  UNL1        0.1387
     33 C          62.7786   85.2073   16.5041 C.3     1  UNL1        0.1384
     34 N          63.2144   84.7576   15.1410 N.ar    1  UNL1       -0.2918
     35 C          64.0891   85.5275   14.1964 C.ar    1  UNL1        0.1798
     36 N          64.2673   84.7048   12.9549 N.ar    1  UNL1       -0.2195
     37 C          63.5029   83.4265   13.1322 C.ar    1  UNL1        0.1481
     38 C          63.3153   82.2370   12.2379 C.ar    1  UNL1        0.1480
     39 N          63.9660   82.2043   10.8868 N.pl3   1  UNL1       -0.3413
     40 N          62.4769   81.0801   12.6947 N.ar    1  UNL1       -0.2078
     41 C          61.8262   81.1127   14.0458 C.ar    1  UNL1        0.2015
     42 N          62.0138   82.3022   14.9401 N.ar    1  UNL1       -0.2048
     43 C          62.8521   83.4591   14.4833 C.ar    1  UNL1        0.1674
     44 H          64.5162   82.9637   10.5870 H       1  UNL1        0.1438
     45 H          63.8428   81.4236   10.2998 H       1  UNL1        0.1438
@<TRIPOS>BOND
     1    32    31    1
     2    32    33    1
     3    33    34    1
     4    34    35   ar
     5    35    36   ar
     6    36    37   ar
     7    37    38   ar
     8    38    39    1
     9    38    40   ar
    10    40    41   ar
    11    41    42   ar
    12    42    43   ar
    13    32    30    1
    14    30    29    1
    15    29    25    1
    16    25    26    2
    17    25    27    1
    18    25    24    1
    19    24     1    1
    20     1     2    1
    21     2     3    1
    22     3     4    1
    23     4     5    1
    24     5     6    1
    25     6     7    1
    26     7     8    1
    27     8     9    1
    28     9    10    1
    29    10    11    1
    30    11    12    1
    31    12    13    1
    32    13    14    1
    33    14    15    1
    34    15    16    1
    35    16    17    1
    36    17    18    1
    37    18    19    1
    38    19    20    1
    39    20    21    1
    40    20    22    1
    41    20    23    1
    42    43    34   ar
    43    43    37   ar
    44    39    44    1
    45    39    45    1
    46    27    28    1
@<TRIPOS>MOLECULE
*****
 45 46 0 0 0
SMALL
GASTEIGER

@<TRIPOS>ATOM
      1 C          59.1636   89.2713    6.7385 C.3     1  UNL1        0.1540
      2 C          59.9230   89.3856    8.0270 C.3     1  UNL1        0.0646
      3 C          60.1853   88.1620    8.8540 C.3     1  UNL1        0.1448
      4 O          61.5881   87.8158    9.2569 O.3     1  UNL1       -0.3537
      5 C          61.9619   86.3872    9.5202 C.3     1  UNL1        0.1422
      6 C          61.5662   85.7341   10.8112 C.3     1  UNL1        0.0321
      7 C          62.5144   84.7973   11.4994 C.3     1  UNL1        0.0026
      8 C          63.3820   83.8798   10.6898 C.3     1  UNL1        0.0001
      9 C          63.8551   82.5830   11.2766 C.3     1  UNL1        0.0000
     10 C          62.8995   81.7098   12.0345 C.3     1  UNL1        0.0000
     11 C          63.0275   81.5730   13.5227 C.3     1  UNL1        0.0000
     12 C          62.6336   82.7110   14.4171 C.3     1  UNL1        0.0000
     13 C          63.6869   83.4911   15.1463 C.3     1  UNL1        0.0000
     14 C          64.4717   84.5471   14.4259 C.3     1  UNL1        0.0000
     15 C          64.5782   85.9273   15.0034 C.3     1  UNL1        0.0000
     16 C          64.3259   87.1248   14.1360 C.3     1  UNL1        0.0000
     17 C          64.1783   88.4825   14.7562 C.3     1  UNL1        0.0003
     18 C          63.8333   89.6648   13.9000 C.3     1  UNL1        0.0088
     19 C          63.5471   89.4753   12.4397 C.3     1  UNL1        0.1033
     20 C          62.2935   90.0414   11.8414 C.3     1  UNL1        0.3978
     21 F          61.0399   90.6076   11.2432 F       1  UNL1       -0.1700
     22 F          62.9786   90.1532   10.5117 F       1  UNL1       -0.1700
     23 F          61.6085   89.9296   13.1713 F       1  UNL1       -0.1700
     24 O          59.4802   90.1916    5.5971 O.3     1  UNL1       -0.2925
     25 P          58.5266   91.2909    5.2333 P.3     1  UNL1        0.3697
     26 O          57.4191   90.5625    5.9354 O.2     1  UNL1       -0.2553
     27 O          57.5730   92.3901    4.8694 O.3     1  UNL1       -0.3218
     28 H          56.6922   92.1829    5.2191 H       1  UNL1        0.2198
     29 C          59.6340   92.0192    4.5311 C.3     1  UNL1        0.2579
     30 O          59.3360   92.8441    3.3143 O.3     1  UNL1       -0.3426
     31 C          60.3556   94.9019    2.0995 C.3     1  UNL1        0.0342
     32 C          60.4572   93.4718    2.5406 C.3     1  UNL1        0.1387
     33 C          61.6802   92.6694    2.2079 C.3     1  UNL1        0.1384
     34 N          62.6288   93.1514    1.1505 N.ar    1  UNL1       -0.2918
     35 C          64.0798   93.4756    1.3493 C.ar    1  UNL1        0.1798
     36 N          64.6406   93.9185    0.0304 N.ar    1  UNL1       -0.2195
     37 C          63.5362   93.8679   -0.9834 C.ar    1  UNL1        0.1481
     38 C          63.5021   94.1923   -2.4475 C.ar    1  UNL1        0.1480
     39 N          64.7455   94.6664   -3.1398 N.pl3   1  UNL1       -0.3413
     40 N          62.2247   94.0426   -3.2193 N.ar    1  UNL1       -0.2078
     41 C          60.9813   93.5686   -2.5270 C.ar    1  UNL1        0.2015
     42 N          61.0154   93.2442   -1.0629 N.ar    1  UNL1       -0.2048
     43 C          62.2928   93.3938   -0.2911 C.ar    1  UNL1        0.1674
     44 H          65.5839   94.7646   -2.6332 H       1  UNL1        0.1438
     45 H          64.7231   94.8793   -4.1007 H       1  UNL1        0.1438
@<TRIPOS>BOND
     1    32    31    1
     2    32    33    1
     3    33    34    1
     4    34    35   ar
     5    35    36   ar
     6    36    37   ar
     7    37    38   ar
     8    38    39    1
     9    38    40   ar
    10    40    41   ar
    11    41    42   ar
    12    42    43   ar
    13    32    30    1
    14    30    29    1
    15    29    25    1
    16    25    26    2
    17    25    27    1
    18    25    24    1
    19    24     1    1
    20     1     2    1
    21     2     3    1
    22     3     4    1
    23     4     5    1
    24     5     6    1
    25     6     7    1
    26     7     8    1
    27     8     9    1
    28     9    10    1
    29    10    11    1
    30    11    12    1
    31    12    13    1
    32    13    14    1
    33    14    15    1
    34    15    16    1
    35    16    17    1
    36    17    18    1
    37    18    19    1
    38    19    20    1
    39    20    21    1
    40    20    22    1
    41    20    23    1
    42    43    34   ar
    43    43    37   ar
    44    39    44    1
    45    39    45    1
    46    27    28    1
@<TRIPOS>MOLECULE
*****
 45 46 0 0 0
SMALL
GASTEIGER

@<TRIPOS>ATOM
      1 C          66.8835   93.7281   13.8776 C.3     1  UNL1        0.1540
      2 C          67.2026   93.2767   15.2720 C.3     1  UNL1        0.0646
      3 C          66.1645   92.5614   16.0848 C.3     1  UNL1        0.1448
      4 O          65.3154   91.5001   15.4503 O.3     1  UNL1       -0.3537
      5 C          63.8840   91.3359   15.8673 C.3     1  UNL1        0.1422
      6 C          63.4751   90.1550   16.6968 C.3     1  UNL1        0.0321
      7 C          63.4592   88.7826   16.0915 C.3     1  UNL1        0.0026
      8 C          63.0492   87.6018   16.9207 C.3     1  UNL1        0.0001
      9 C          63.4700   86.2197   16.5175 C.3     1  UNL1        0.0000
     10 C          64.4633   86.0313   15.4095 C.3     1  UNL1        0.0000
     11 C          64.1668   85.0774   14.2906 C.3     1  UNL1        0.0000
     12 C          63.1968   85.4630   13.2134 C.3     1  UNL1        0.0000
     13 C          63.0200   84.5817   12.0126 C.3     1  UNL1        0.0000
     14 C          64.2208   84.0826   11.2651 C.3     1  UNL1        0.0000
     15 C          64.5124   82.6122   11.2103 C.3     1  UNL1        0.0000
     16 C          63.5506   81.6817   10.5326 C.3     1  UNL1        0.0000
     17 C          62.4349   81.0556   11.3155 C.3     1  UNL1        0.0003
     18 C          62.7367   80.0041   12.3417 C.3     1  UNL1        0.0088
     19 C          62.7314   80.3557   13.8000 C.3     1  UNL1        0.1033
     20 C          62.1898   81.6801   14.2502 C.3     1  UNL1        0.3978
     21 F          61.6482   83.0045   14.7003 F       1  UNL1       -0.1700
     22 F          60.7929   81.1933   14.0017 F       1  UNL1       -0.1700
     23 F          63.5867   82.1669   14.4986 F       1  UNL1       -0.1700
     24 O          66.2583   92.7729   12.9047 O.3     1  UNL1       -0.2925
     25 P          65.7655   93.2692   11.5777 P.3     1  UNL1        0.3697
     26 O          66.5285   94.5460   11.7719 O.2     1  UNL1       -0.2553
     27 O          65.2727   93.7655   10.2508 O.3     1  UNL1       -0.3218
     28 H          65.6317   94.6509   10.0831 H       1  UNL1        0.2198
     29 C          65.0025   91.9925   11.3836 C.3     1  UNL1        0.2579
     30 O          63.7962   91.7039   12.2271 O.3     1  UNL1       -0.3426
     31 C          62.1451   89.9087   13.1222 C.3     1  UNL1        0.0342
     32 C          63.0293   90.4301   12.0285 C.3     1  UNL1        0.1387
     33 C          63.1466   89.6778   10.7360 C.3     1  UNL1        0.1384
     34 N          61.9151   89.1538   10.0587 N.ar    1  UNL1       -0.2918
     35 C          60.5859   89.8455    9.9879 C.ar    1  UNL1        0.1798
     36 N          59.6458   88.9653    9.2188 N.ar    1  UNL1       -0.2195
     37 C          60.3940   87.7296    8.8144 C.ar    1  UNL1        0.1481
     38 C          59.9793   86.5135    8.0405 C.ar    1  UNL1        0.1480
     39 N          58.5769   86.3969    7.5214 N.pl3   1  UNL1       -0.3413
     40 N          60.9672   85.4139    7.7857 N.ar    1  UNL1       -0.2078
     41 C          62.3696   85.5304    8.3048 C.ar    1  UNL1        0.2015
     42 N          62.7843   86.7466    9.0787 N.ar    1  UNL1       -0.2048
     43 C          61.7964   87.8462    9.3335 C.ar    1  UNL1        0.1674
     44 H          57.9285   87.1187    7.6886 H       1  UNL1        0.1438
     45 H          58.3047   85.5987    7.0134 H       1  UNL1        0.1438
@<TRIPOS>BOND
     1    32    31    1
     2    32    33    1
     3    33    34    1
     4    34    35   ar
     5    35    36   ar
     6    36    37   ar
     7    37    38   ar
     8    38    39    1
     9    38    40   ar
    10    40    41   ar
    11    41    42   ar
    12    42    43   ar
    13    32    30    1
    14    30    29    1
    15    29    25    1
    16    25    26    2
    17    25    27    1
    18    25    24    1
    19    24     1    1
    20     1     2    1
    21     2     3    1
    22     3     4    1
    23     4     5    1
    24     5     6    1
    25     6     7    1
    26     7     8    1
    27     8     9    1
    28     9    10    1
    29    10    11    1
    30    11    12    1
    31    12    13    1
    32    13    14    1
    33    14    15    1
    34    15    16    1
    35    16    17    1
    36    17    18    1
    37    18    19    1
    38    19    20    1
    39    20    21    1
    40    20    22    1
    41    20    23    1
    42    43    34   ar
    43    43    37   ar
    44    39    44    1
    45    39    45    1
    46    27    28    1
