@<TRIPOS>MOLECULE
*****
 40 43 0 0 0
SMALL
GASTEIGER

@<TRIPOS>ATOM
      1 C          60.5084   90.5957   11.6068 C.3     1  UNL1        0.0265
      2 C          61.9011   90.0403   11.6492 C.3     1  UNL1        0.1011
      3 N          63.0780   90.9692   11.6951 N.am    1  UNL1       -0.2438
      4 C          63.5838   91.6018   10.4326 C.3     1  UNL1        0.1009
      5 C          64.7606   92.5308   10.4785 C.3     1  UNL1        0.0662
      6 C          65.4317   92.8271   11.7868 C.3     1  UNL1        0.1600
      7 O          64.9259   92.1944   13.0494 O.3     1  UNL1       -0.4374
      8 C          63.7490   91.2655   13.0035 C.2     1  UNL1        0.4051
      9 O          63.2432   90.6329   14.2660 O.2     1  UNL1       -0.2262
     10 C          66.2719   93.6635   10.8679 C.ar    1  UNL1        0.0138
     11 C          66.2511   95.1587   10.9856 C.ar    1  UNL1       -0.0010
     12 C          67.0913   95.9952   10.0667 C.ar    1  UNL1       -0.0002
     13 C          67.9523   95.3363    9.0300 C.ar    1  UNL1       -0.0000
     14 C          67.9731   93.8411    8.9123 C.ar    1  UNL1       -0.0002
     15 C          67.1329   93.0046    9.8312 C.ar    1  UNL1       -0.0010
     16 C          66.3946   93.4139   12.7761 C.3     1  UNL1        0.0714
     17 C          67.0691   92.5288   13.7818 C.3     1  UNL1        0.0922
     18 C          67.7185   91.7598   12.6696 C.3     1  UNL1        0.0294
     19 C          66.4198   93.2977   14.8940 C.3     1  UNL1        0.0294
     20 O          67.7437   91.6436   14.7875 O.3     1  UNL1       -0.3866
     21 H          68.2850   90.9840   14.3261 H       1  UNL1        0.2102
     22 C          62.1170   88.5558   11.6456 C.ar    1  UNL1       -0.0042
     23 C          61.3715   87.6918   10.6722 C.ar    1  UNL1       -0.0027
     24 C          61.5874   86.2075   10.6687 C.ar    1  UNL1       -0.0003
     25 C          62.5489   85.5872   11.6386 C.ar    1  UNL1        0.0002
     26 C          63.2945   86.4512   12.6120 C.ar    1  UNL1       -0.0003
     27 C          63.0785   87.9355   12.6155 C.ar    1  UNL1       -0.0027
     28 C          62.7648   84.1027   11.6351 C.ar    1  UNL1        0.0062
     29 C          63.5974   83.4685   10.5607 C.ar    1  UNL1        0.0189
     30 C          63.8134   81.9841   10.5571 C.ar    1  UNL1        0.0784
     31 N          63.1966   81.1340   11.6280 N.ar    1  UNL1       -0.2918
     32 C          62.3639   81.7683   12.7025 C.ar    1  UNL1        0.2611
     33 O          61.7471   80.9181   13.7734 O.2     1  UNL1       -0.2670
     34 C          62.1480   83.2526   12.7060 C.ar    1  UNL1        0.0608
     35 C          63.4125   79.6496   11.6245 C.3     1  UNL1        0.1357
     36 C          62.7085   78.7918   10.6154 C.3     1  UNL1        0.1093
     37 C          62.7487   79.9203    9.6281 C.3     1  UNL1        0.0313
     38 C          62.6683   77.6633   11.6027 C.3     1  UNL1        0.0313
     39 O          62.0045   77.9338    9.6062 O.3     1  UNL1       -0.3848
     40 H          61.8772   78.4369    8.7867 H       1  UNL1        0.2103
@<TRIPOS>BOND
     1     2     1    1
     2     2    22    1
     3    22    23   ar
     4    23    24   ar
     5    24    25   ar
     6    25    28    1
     7    28    29   ar
     8    29    30   ar
     9    30    31   ar
    10    31    35    1
    11    35    36    1
    12    36    37    1
    13    36    38    1
    14    36    39    1
    15    31    32   ar
    16    32    33    2
    17    32    34   ar
    18    25    26   ar
    19    26    27   ar
    20     2     3    1
    21     3     4    1
    22     4     5    1
    23     5     6    1
    24     6    16    1
    25    16    17    1
    26    17    18    1
    27    17    19    1
    28    17    20    1
    29     6    10    1
    30    10    11   ar
    31    11    12   ar
    32    12    13   ar
    33    13    14   ar
    34    14    15   ar
    35     6     7    1
    36     7     8    1
    37     8     9    2
    38    27    22   ar
    39     8     3   am
    40    34    28   ar
    41    15    10   ar
    42    39    40    1
    43    20    21    1
@<TRIPOS>MOLECULE
*****
 40 43 0 0 0
SMALL
GASTEIGER

@<TRIPOS>ATOM
      1 C          57.1070   90.0149    5.9750 C.3     1  UNL1        0.0265
      2 C          58.6008   90.1258    6.0527 C.3     1  UNL1        0.1011
      3 N          59.3397   90.9984    5.0818 N.am    1  UNL1       -0.2438
      4 C          60.7908   90.7444    4.7992 C.3     1  UNL1        0.1009
      5 C          61.5296   91.6170    3.8283 C.3     1  UNL1        0.0662
      6 C          60.8175   92.7434    3.1399 C.3     1  UNL1        0.1600
      7 O          59.3663   92.9974    3.4225 O.3     1  UNL1       -0.4374
      8 C          58.6274   92.1249    4.3934 C.2     1  UNL1        0.4051
      9 O          57.1764   92.3788    4.6760 O.2     1  UNL1       -0.2262
     10 C          62.1863   92.8995    2.5467 C.ar    1  UNL1        0.0138
     11 C          63.0899   91.7087    2.4218 C.ar    1  UNL1       -0.0010
     12 C          64.4587   91.8649    1.8286 C.ar    1  UNL1       -0.0002
     13 C          64.9240   93.2118    1.3603 C.ar    1  UNL1       -0.0000
     14 C          64.0204   94.4026    1.4852 C.ar    1  UNL1       -0.0002
     15 C          62.6516   94.2465    2.0784 C.ar    1  UNL1       -0.0010
     16 C          60.5806   93.9241    2.2455 C.3     1  UNL1        0.0714
     17 C          59.6487   93.8044    1.0763 C.3     1  UNL1        0.0922
     18 C          59.4290   95.2881    1.0994 C.3     1  UNL1        0.0294
     19 C          59.8684   92.3208    1.0532 C.3     1  UNL1        0.0294
     20 O          58.7168   93.6847   -0.0929 O.3     1  UNL1       -0.3866
     21 H          58.3820   94.5635   -0.3308 H       1  UNL1        0.2102
     22 C          59.3559   89.3642    7.1015 C.ar    1  UNL1       -0.0042
     23 C          59.3905   87.8651    7.0607 C.ar    1  UNL1       -0.0027
     24 C          60.1455   87.1036    8.1094 C.ar    1  UNL1       -0.0003
     25 C          60.8659   87.8410    9.1990 C.ar    1  UNL1        0.0002
     26 C          60.8312   89.3400    9.2399 C.ar    1  UNL1       -0.0003
     27 C          60.0762   90.1016    8.1912 C.ar    1  UNL1       -0.0027
     28 C          61.6209   87.0793   10.2478 C.ar    1  UNL1        0.0062
     29 C          61.6710   85.5811   10.1964 C.ar    1  UNL1        0.0189
     30 C          62.4260   84.8194   11.2452 C.ar    1  UNL1        0.0784
     31 N          63.1310   85.5561   12.3453 N.ar    1  UNL1       -0.2918
     32 C          63.0809   87.0544   12.3967 C.ar    1  UNL1        0.2611
     33 O          63.7859   87.7911   13.4968 O.2     1  UNL1       -0.2670
     34 C          62.3259   87.8160   11.3479 C.ar    1  UNL1        0.0608
     35 C          63.8860   84.7945   13.3941 C.3     1  UNL1        0.1357
     36 C          63.3111   83.5315   13.9633 C.3     1  UNL1        0.1093
     37 C          62.3863   84.3402   14.8239 C.3     1  UNL1        0.0313
     38 C          64.2359   82.7227   13.1028 C.3     1  UNL1        0.0313
     39 O          62.7362   82.2683   14.5326 O.3     1  UNL1       -0.3848
     40 H          62.0485   82.4891   15.1800 H       1  UNL1        0.2103
@<TRIPOS>BOND
     1     2     1    1
     2     2    22    1
     3    22    23   ar
     4    23    24   ar
     5    24    25   ar
     6    25    28    1
     7    28    29   ar
     8    29    30   ar
     9    30    31   ar
    10    31    35    1
    11    35    36    1
    12    36    37    1
    13    36    38    1
    14    36    39    1
    15    31    32   ar
    16    32    33    2
    17    32    34   ar
    18    25    26   ar
    19    26    27   ar
    20     2     3    1
    21     3     4    1
    22     4     5    1
    23     5     6    1
    24     6    16    1
    25    16    17    1
    26    17    18    1
    27    17    19    1
    28    17    20    1
    29     6    10    1
    30    10    11   ar
    31    11    12   ar
    32    12    13   ar
    33    13    14   ar
    34    14    15   ar
    35     6     7    1
    36     7     8    1
    37     8     9    2
    38    27    22   ar
    39     8     3   am
    40    34    28   ar
    41    15    10   ar
    42    39    40    1
    43    20    21    1
@<TRIPOS>MOLECULE
*****
 40 43 0 0 0
SMALL
GASTEIGER

@<TRIPOS>ATOM
      1 C          61.0132   90.4903   11.3365 C.3     1  UNL1        0.0265
      2 C          62.3195   89.8353   11.6747 C.3     1  UNL1        0.1011
      3 N          63.5198   90.6764   11.9937 N.am    1  UNL1       -0.2438
      4 C          64.2243   90.5102   13.3075 C.3     1  UNL1        0.1009
      5 C          65.4246   91.3513   13.6265 C.3     1  UNL1        0.0662
      6 C          65.9205   92.3585   12.6318 C.3     1  UNL1        0.1600
      7 O          65.2160   92.5247   11.3179 O.3     1  UNL1       -0.4374
      8 C          64.0157   91.6836   10.9989 C.2     1  UNL1        0.4051
      9 O          63.3112   91.8498    9.6851 O.2     1  UNL1       -0.2262
     10 C          66.9175   92.5674   13.7330 C.ar    1  UNL1        0.0138
     11 C          68.3032   92.0073   13.6062 C.ar    1  UNL1       -0.0010
     12 C          69.3001   92.2162   14.7074 C.ar    1  UNL1       -0.0002
     13 C          68.9113   92.9851   15.9352 C.ar    1  UNL1       -0.0000
     14 C          67.5255   93.5452   16.0619 C.ar    1  UNL1       -0.0002
     15 C          66.5286   93.3364   14.9607 C.ar    1  UNL1       -0.0010
     16 C          66.7626   93.4384   12.0194 C.3     1  UNL1        0.0714
     17 C          66.6343   93.7516   10.5582 C.3     1  UNL1        0.0922
     18 C          65.8406   94.9801   10.8911 C.3     1  UNL1        0.0294
     19 C          67.4280   92.5231   10.2252 C.3     1  UNL1        0.0294
     20 O          66.5060   94.0649    9.0969 O.3     1  UNL1       -0.3866
     21 H          65.9944   94.8814    8.9850 H       1  UNL1        0.2102
     22 C          62.4256   88.3391   11.6939 C.ar    1  UNL1       -0.0042
     23 C          61.7240   87.5240   10.6482 C.ar    1  UNL1       -0.0027
     24 C          61.8301   86.0279   10.6674 C.ar    1  UNL1       -0.0003
     25 C          62.6378   85.3469   11.7323 C.ar    1  UNL1        0.0002
     26 C          63.3393   86.1620   12.7779 C.ar    1  UNL1       -0.0003
     27 C          63.2332   87.6581   12.7587 C.ar    1  UNL1       -0.0027
     28 C          62.7438   83.8507   11.7514 C.ar    1  UNL1        0.0062
     29 C          63.5193   83.1401   10.6821 C.ar    1  UNL1        0.0189
     30 C          63.6254   81.6439   10.7012 C.ar    1  UNL1        0.0784
     31 N          62.9559   80.8585   11.7898 N.ar    1  UNL1       -0.2918
     32 C          62.1805   81.5692   12.8592 C.ar    1  UNL1        0.2611
     33 O          61.5111   80.7838   13.9478 O.2     1  UNL1       -0.2670
     34 C          62.0744   83.0653   12.8400 C.ar    1  UNL1        0.0608
     35 C          63.0620   79.3624   11.8090 C.3     1  UNL1        0.1357
     36 C          62.7308   78.5712   10.5784 C.3     1  UNL1        0.1093
     37 C          62.8061   77.3020   11.3742 C.3     1  UNL1        0.0313
     38 C          62.6554   79.8405    9.7827 C.3     1  UNL1        0.0313
     39 O          62.3995   77.7800    9.3478 O.3     1  UNL1       -0.3848
     40 H          62.3740   76.8356    9.5677 H       1  UNL1        0.2103
@<TRIPOS>BOND
     1     2     1    1
     2     2    22    1
     3    22    23   ar
     4    23    24   ar
     5    24    25   ar
     6    25    28    1
     7    28    29   ar
     8    29    30   ar
     9    30    31   ar
    10    31    35    1
    11    35    36    1
    12    36    37    1
    13    36    38    1
    14    36    39    1
    15    31    32   ar
    16    32    33    2
    17    32    34   ar
    18    25    26   ar
    19    26    27   ar
    20     2     3    1
    21     3     4    1
    22     4     5    1
    23     5     6    1
    24     6    16    1
    25    16    17    1
    26    17    18    1
    27    17    19    1
    28    17    20    1
    29     6    10    1
    30    10    11   ar
    31    11    12   ar
    32    12    13   ar
    33    13    14   ar
    34    14    15   ar
    35     6     7    1
    36     7     8    1
    37     8     9    2
    38    27    22   ar
    39     8     3   am
    40    34    28   ar
    41    15    10   ar
    42    39    40    1
    43    20    21    1
@<TRIPOS>MOLECULE
*****
 40 43 0 0 0
SMALL
GASTEIGER

@<TRIPOS>ATOM
      1 C          57.3647   89.2476    6.7033 C.3     1  UNL1        0.0265
      2 C          58.8489   89.4626    6.6756 C.3     1  UNL1        0.1011
      3 N          59.7268   88.7625    7.6702 N.am    1  UNL1       -0.2438
      4 C          60.2003   87.3652    7.3997 C.3     1  UNL1        0.1009
      5 C          61.0782   86.6651    8.3943 C.3     1  UNL1        0.0662
      6 C          61.4827   87.3623    9.6592 C.3     1  UNL1        0.1600
      7 O          61.0092   88.7598    9.9297 O.3     1  UNL1       -0.4374
      8 C          60.1313   89.4599    8.9352 C.2     1  UNL1        0.4051
      9 O          59.6578   90.8572    9.2056 O.2     1  UNL1       -0.2262
     10 C          62.1809   86.0486    9.8513 C.ar    1  UNL1        0.0138
     11 C          62.9701   85.4473    8.7264 C.ar    1  UNL1       -0.0010
     12 C          63.6683   84.1336    8.9185 C.ar    1  UNL1       -0.0002
     13 C          63.5771   83.4214   10.2354 C.ar    1  UNL1       -0.0000
     14 C          62.7878   84.0227   11.3603 C.ar    1  UNL1       -0.0002
     15 C          62.0897   85.3364   11.1683 C.ar    1  UNL1       -0.0010
     16 C          62.1296   87.6034   10.9910 C.3     1  UNL1        0.0714
     17 C          61.6941   88.7625   11.8375 C.3     1  UNL1        0.0922
     18 C          60.3151   88.1791   11.9269 C.3     1  UNL1        0.0294
     19 C          63.0731   89.3459   11.7482 C.3     1  UNL1        0.0294
     20 O          61.2585   89.9216   12.6841 O.3     1  UNL1       -0.3866
     21 H          60.3238   89.8157   12.9210 H       1  UNL1        0.2102
     22 C          59.4553   90.3778    5.6534 C.ar    1  UNL1       -0.0042
     23 C          60.9117   90.2625    5.3135 C.ar    1  UNL1       -0.0027
     24 C          61.5180   91.1776    4.2913 C.ar    1  UNL1       -0.0003
     25 C          60.6679   92.2080    3.6090 C.ar    1  UNL1        0.0002
     26 C          59.2115   92.3233    3.9489 C.ar    1  UNL1       -0.0003
     27 C          58.6052   91.4082    4.9711 C.ar    1  UNL1       -0.0027
     28 C          61.2742   93.1231    2.5868 C.ar    1  UNL1        0.0062
     29 C          62.5961   92.7822    1.9651 C.ar    1  UNL1        0.0189
     30 C          63.2024   93.6974    0.9428 C.ar    1  UNL1        0.0784
     31 N          62.4869   94.9534    0.5423 N.ar    1  UNL1       -0.2918
     32 C          61.1650   95.2943    1.1641 C.ar    1  UNL1        0.2611
     33 O          60.4495   96.5504    0.7636 O.2     1  UNL1       -0.2670
     34 C          60.5587   94.3792    2.1863 C.ar    1  UNL1        0.0608
     35 C          63.0932   95.8685   -0.4798 C.3     1  UNL1        0.1357
     36 C          64.5825   96.0327   -0.5500 C.3     1  UNL1        0.1093
     37 C          64.5990   95.3197   -1.8695 C.3     1  UNL1        0.0313
     38 C          64.5660   96.7458    0.7696 C.3     1  UNL1        0.0313
     39 O          66.0719   96.1970   -0.6200 O.3     1  UNL1       -0.3848
     40 H          66.4030   95.7976   -1.4397 H       1  UNL1        0.2103
@<TRIPOS>BOND
     1     2     1    1
     2     2    22    1
     3    22    23   ar
     4    23    24   ar
     5    24    25   ar
     6    25    28    1
     7    28    29   ar
     8    29    30   ar
     9    30    31   ar
    10    31    35    1
    11    35    36    1
    12    36    37    1
    13    36    38    1
    14    36    39    1
    15    31    32   ar
    16    32    33    2
    17    32    34   ar
    18    25    26   ar
    19    26    27   ar
    20     2     3    1
    21     3     4    1
    22     4     5    1
    23     5     6    1
    24     6    16    1
    25    16    17    1
    26    17    18    1
    27    17    19    1
    28    17    20    1
    29     6    10    1
    30    10    11   ar
    31    11    12   ar
    32    12    13   ar
    33    13    14   ar
    34    14    15   ar
    35     6     7    1
    36     7     8    1
    37     8     9    2
    38    27    22   ar
    39     8     3   am
    40    34    28   ar
    41    15    10   ar
    42    39    40    1
    43    20    21    1
@<TRIPOS>MOLECULE
*****
 40 43 0 0 0
SMALL
GASTEIGER

@<TRIPOS>ATOM
      1 C          57.5960   89.3047    6.6856 C.3     1  UNL1        0.0265
      2 C          59.0379   89.7173    6.7135 C.3     1  UNL1        0.1011
      3 N          59.9217   89.2791    7.8434 N.am    1  UNL1       -0.2438
      4 C          60.5879   90.3022    8.7147 C.3     1  UNL1        0.1009
      5 C          61.4718   89.8640    9.8447 C.3     1  UNL1        0.0662
      6 C          61.6894   88.4026   10.1033 C.3     1  UNL1        0.1600
      7 O          61.0231   87.3794    9.2320 O.3     1  UNL1       -0.4374
      8 C          60.1393   87.8176    8.1020 C.2     1  UNL1        0.4051
      9 O          59.4731   86.7944    7.2307 O.2     1  UNL1       -0.2262
     10 C          62.5329   88.9890   11.1963 C.ar    1  UNL1        0.0138
     11 C          62.9887   88.1271   12.3362 C.ar    1  UNL1       -0.0010
     12 C          63.8323   88.7135   13.4292 C.ar    1  UNL1       -0.0002
     13 C          64.2200   90.1617   13.3822 C.ar    1  UNL1       -0.0000
     14 C          63.7642   91.0236   12.2423 C.ar    1  UNL1       -0.0002
     15 C          62.9207   90.4373   11.1493 C.ar    1  UNL1       -0.0010
     16 C          62.2000   87.1448   10.7415 C.3     1  UNL1        0.0714
     17 C          62.4657   85.9316    9.9006 C.3     1  UNL1        0.0922
     18 C          61.7318   85.0815   10.8950 C.3     1  UNL1        0.0294
     19 C          63.1996   86.7815    8.9062 C.3     1  UNL1        0.0294
     20 O          62.7314   84.7182    9.0597 O.3     1  UNL1       -0.3866
     21 H          62.3413   83.9385    9.4847 H       1  UNL1        0.2102
     22 C          59.5959   90.5682    5.6113 C.ar    1  UNL1       -0.0042
     23 C          61.0371   90.4347    5.2172 C.ar    1  UNL1       -0.0027
     24 C          61.5951   91.2856    4.1151 C.ar    1  UNL1       -0.0003
     25 C          60.7119   92.2698    3.4071 C.ar    1  UNL1        0.0002
     26 C          59.2708   92.4033    3.8012 C.ar    1  UNL1       -0.0003
     27 C          58.7128   91.5524    4.9033 C.ar    1  UNL1       -0.0027
     28 C          61.2700   93.1207    2.3049 C.ar    1  UNL1        0.0062
     29 C          62.7081   92.9788    1.9028 C.ar    1  UNL1        0.0189
     30 C          63.2662   93.8297    0.8007 C.ar    1  UNL1        0.0784
     31 N          62.3861   94.8224    0.1007 N.ar    1  UNL1       -0.2918
     32 C          60.9480   94.9642    0.5029 C.ar    1  UNL1        0.2611
     33 O          60.0679   95.9569   -0.1971 O.2     1  UNL1       -0.2670
     34 C          60.3899   94.1134    1.6050 C.ar    1  UNL1        0.0608
     35 C          62.9441   95.6732   -1.0014 C.3     1  UNL1        0.1357
     36 C          63.8084   95.0563   -2.0608 C.3     1  UNL1        0.1093
     37 C          62.6325   94.2726   -2.5638 C.3     1  UNL1        0.0313
     38 C          64.9843   95.8399   -1.5578 C.3     1  UNL1        0.0313
     39 O          64.6728   94.4393   -3.1202 O.3     1  UNL1       -0.3848
     40 H          64.1422   93.8285   -3.6552 H       1  UNL1        0.2103
@<TRIPOS>BOND
     1     2     1    1
     2     2    22    1
     3    22    23   ar
     4    23    24   ar
     5    24    25   ar
     6    25    28    1
     7    28    29   ar
     8    29    30   ar
     9    30    31   ar
    10    31    35    1
    11    35    36    1
    12    36    37    1
    13    36    38    1
    14    36    39    1
    15    31    32   ar
    16    32    33    2
    17    32    34   ar
    18    25    26   ar
    19    26    27   ar
    20     2     3    1
    21     3     4    1
    22     4     5    1
    23     5     6    1
    24     6    16    1
    25    16    17    1
    26    17    18    1
    27    17    19    1
    28    17    20    1
    29     6    10    1
    30    10    11   ar
    31    11    12   ar
    32    12    13   ar
    33    13    14   ar
    34    14    15   ar
    35     6     7    1
    36     7     8    1
    37     8     9    2
    38    27    22   ar
    39     8     3   am
    40    34    28   ar
    41    15    10   ar
    42    39    40    1
    43    20    21    1
