@<TRIPOS>MOLECULE
*****
 33 36 0 0 0
SMALL
GASTEIGER

@<TRIPOS>ATOM
      1 O          59.9420   86.2874    9.3115 O.3     1  UNL1       -0.3755
      2 C          60.8756   87.1808   10.0731 C.3     1  UNL1        0.1932
      3 H          59.6683   85.5483    9.8770 H       1  UNL1        0.2110
      4 C          61.8021   86.0223   10.2962 C.ar    1  UNL1        0.0368
      5 C          61.9877   85.4655   11.6766 C.ar    1  UNL1        0.0028
      6 C          62.9142   84.3071   11.8997 C.ar    1  UNL1        0.0295
      7 C          63.6550   83.7056   10.7425 C.ar    1  UNL1        0.1424
      8 F          64.5815   82.5471   10.9656 F       1  UNL1       -0.2041
      9 C          63.4693   84.2624    9.3621 C.ar    1  UNL1        0.0590
     10 C          62.5429   85.4208    9.1390 C.ar    1  UNL1        0.1408
     11 F          62.3573   85.9776    7.7586 F       1  UNL1       -0.2043
     12 C          61.8092   88.0742   10.8348 C.3     1  UNL1        0.3254
     13 F          62.9987   88.2109    9.9312 F       1  UNL1       -0.1949
     14 F          60.8161   88.1561   11.9560 F       1  UNL1       -0.1949
     15 C          62.7428   88.9676   11.5965 C.ar    1  UNL1        0.1218
     16 C          63.1026   90.3172   11.0495 C.ar    1  UNL1        0.0202
     17 C          64.0363   91.2106   11.8112 C.ar    1  UNL1        0.0030
     18 C          64.6101   90.7544   13.1199 C.ar    1  UNL1        0.0207
     19 C          64.2503   89.4048   13.6669 C.ar    1  UNL1        0.0987
     20 N          63.3166   88.5115   12.9052 N.ar    1  UNL1       -0.2427
     21 C          65.5437   91.6478   13.8816 C.ar    1  UNL1        0.0208
     22 C          65.4159   91.7707   15.3710 C.ar    1  UNL1        0.0055
     23 C          66.3495   92.6641   16.1328 C.ar    1  UNL1        0.0497
     24 C          67.4110   93.4346   15.4050 C.ar    1  UNL1        0.2223
     25 F          68.3446   94.3280   16.1667 F       1  UNL1       -0.1832
     26 N          67.5388   93.3117   13.9155 N.ar    1  UNL1       -0.2165
     27 C          66.6052   92.4183   13.1538 C.ar    1  UNL1        0.1013
     28 C          59.9491   88.3391    9.8500 C.3     1  UNL1        0.1679
     29 N          59.6385   88.7931    8.4545 N.ar    1  UNL1       -0.2078
     30 C          60.1910   90.0142    7.7811 C.ar    1  UNL1        0.2216
     31 N          59.6148   90.0815    6.3978 N.ar    1  UNL1       -0.1048
     32 N          58.7062   88.9020    6.2163 N.ar    1  UNL1       -0.0226
     33 N          58.7208   88.1057    7.4874 N.ar    1  UNL1       -0.0428
@<TRIPOS>BOND
     1     1     2    1
     2     2    28    1
     3    28    29    1
     4    29    30   ar
     5    30    31   ar
     6    31    32   ar
     7    32    33   ar
     8     2     4    1
     9     4     5   ar
    10     5     6   ar
    11     6     7   ar
    12     7     8    1
    13     7     9   ar
    14     9    10   ar
    15    10    11    1
    16     2    12    1
    17    12    13    1
    18    12    14    1
    19    12    15    1
    20    15    16   ar
    21    16    17   ar
    22    17    18   ar
    23    18    21    1
    24    21    22   ar
    25    22    23   ar
    26    23    24   ar
    27    24    25    1
    28    24    26   ar
    29    26    27   ar
    30    18    19   ar
    31    19    20   ar
    32    33    29   ar
    33    10     4   ar
    34    20    15   ar
    35    27    21   ar
    36     1     3    1
@<TRIPOS>MOLECULE
*****
 33 36 0 0 0
SMALL
GASTEIGER

@<TRIPOS>ATOM
      1 O          64.7770   83.2157   15.4946 O.3     1  UNL1       -0.3755
      2 C          64.0877   83.9933   14.4129 C.3     1  UNL1        0.1932
      3 H          65.4363   82.6249   15.0981 H       1  UNL1        0.2110
      4 C          63.6551   82.7106   13.7666 C.ar    1  UNL1        0.0368
      5 C          62.6795   81.8105   14.4652 C.ar    1  UNL1        0.0028
      6 C          62.2469   80.5279   13.8190 C.ar    1  UNL1        0.0295
      7 C          62.7898   80.1453   12.4741 C.ar    1  UNL1        0.1424
      8 F          62.3572   78.8626   11.8278 F       1  UNL1       -0.2041
      9 C          63.7654   81.0454   11.7754 C.ar    1  UNL1        0.0590
     10 C          64.1980   82.3280   12.4217 C.ar    1  UNL1        0.1408
     11 F          65.1736   83.2281   11.7230 F       1  UNL1       -0.2043
     12 C          63.3984   84.7709   13.3311 C.3     1  UNL1        0.3254
     13 F          62.0237   84.1732   13.2742 F       1  UNL1       -0.1949
     14 F          64.6432   85.5807   13.1201 F       1  UNL1       -0.1949
     15 C          62.7090   85.5485   12.2494 C.ar    1  UNL1        0.1218
     16 C          62.0619   84.8280   11.1039 C.ar    1  UNL1        0.0202
     17 C          61.3725   85.6056   10.0221 C.ar    1  UNL1        0.0030
     18 C          61.3303   87.1037   10.0859 C.ar    1  UNL1        0.0207
     19 C          61.9775   87.8241   11.2314 C.ar    1  UNL1        0.0987
     20 N          62.6669   87.0465   12.3131 N.ar    1  UNL1       -0.2427
     21 C          60.6410   87.8813    9.0042 C.ar    1  UNL1        0.0208
     22 C          59.8304   87.1644    7.9655 C.ar    1  UNL1        0.0055
     23 C          59.1410   87.9420    6.8837 C.ar    1  UNL1        0.0497
     24 C          59.2623   89.4365    6.8407 C.ar    1  UNL1        0.2223
     25 F          58.5730   90.2141    5.7590 F       1  UNL1       -0.1832
     26 N          60.0730   90.1533    7.8795 N.ar    1  UNL1       -0.2165
     27 C          60.7623   89.3757    8.9612 C.ar    1  UNL1        0.1013
     28 C          64.5203   85.2759   15.0592 C.3     1  UNL1        0.1679
     29 N          63.5594   86.0451   15.9164 N.ar    1  UNL1       -0.2078
     30 C          62.4732   85.4583   16.7684 C.ar    1  UNL1        0.2216
     31 N          61.7585   86.5868   17.4507 N.ar    1  UNL1       -0.1048
     32 N          62.4029   87.8712   17.0205 N.ar    1  UNL1       -0.0226
     33 N          63.5159   87.5364   16.0722 N.ar    1  UNL1       -0.0428
@<TRIPOS>BOND
     1     1     2    1
     2     2    28    1
     3    28    29    1
     4    29    30   ar
     5    30    31   ar
     6    31    32   ar
     7    32    33   ar
     8     2     4    1
     9     4     5   ar
    10     5     6   ar
    11     6     7   ar
    12     7     8    1
    13     7     9   ar
    14     9    10   ar
    15    10    11    1
    16     2    12    1
    17    12    13    1
    18    12    14    1
    19    12    15    1
    20    15    16   ar
    21    16    17   ar
    22    17    18   ar
    23    18    21    1
    24    21    22   ar
    25    22    23   ar
    26    23    24   ar
    27    24    25    1
    28    24    26   ar
    29    26    27   ar
    30    18    19   ar
    31    19    20   ar
    32    33    29   ar
    33    10     4   ar
    34    20    15   ar
    35    27    21   ar
    36     1     3    1
@<TRIPOS>MOLECULE
*****
 33 36 0 0 0
SMALL
GASTEIGER

@<TRIPOS>ATOM
      1 O          64.1063   91.3809   15.7828 O.3     1  UNL1       -0.3755
      2 C          63.7373   90.5206   14.6109 C.3     1  UNL1        0.1932
      3 H          63.9318   92.3108   15.5689 H       1  UNL1        0.2110
      4 C          64.6961   91.2856   13.7474 C.ar    1  UNL1        0.0368
      5 C          64.2078   91.9598   12.4996 C.ar    1  UNL1        0.0028
      6 C          65.1665   92.7248   11.6362 C.ar    1  UNL1        0.0295
      7 C          66.6136   92.8155   12.0205 C.ar    1  UNL1        0.1424
      8 F          67.5724   93.5805   11.1570 F       1  UNL1       -0.2041
      9 C          67.1019   92.1412   13.2682 C.ar    1  UNL1        0.0590
     10 C          66.1432   91.3763   14.1317 C.ar    1  UNL1        0.1408
     11 F          66.6315   90.7020   15.3794 F       1  UNL1       -0.2043
     12 C          63.3682   89.6602   13.4389 C.3     1  UNL1        0.3254
     13 F          64.6448   88.9534   13.0912 F       1  UNL1       -0.1949
     14 F          61.9605   90.1741   13.5050 F       1  UNL1       -0.1949
     15 C          62.9992   88.7998   12.2669 C.ar    1  UNL1        0.1218
     16 C          62.6412   89.4328   10.9550 C.ar    1  UNL1        0.0202
     17 C          62.2722   88.5724    9.7830 C.ar    1  UNL1        0.0030
     18 C          62.2611   87.0789    9.9230 C.ar    1  UNL1        0.0207
     19 C          62.6190   86.4460   11.2350 C.ar    1  UNL1        0.0987
     20 N          62.9881   87.3064   12.4069 N.ar    1  UNL1       -0.2427
     21 C          61.8921   86.2185    8.7510 C.ar    1  UNL1        0.0208
     22 C          62.9337   85.3661    8.0891 C.ar    1  UNL1        0.0055
     23 C          62.5647   84.5056    6.9171 C.ar    1  UNL1        0.0497
     24 C          61.1541   84.4976    6.4071 C.ar    1  UNL1        0.2223
     25 F          60.7851   83.6372    5.2352 F       1  UNL1       -0.1832
     26 N          60.1124   85.3501    7.0692 N.ar    1  UNL1       -0.2165
     27 C          60.4814   86.2106    8.2411 C.ar    1  UNL1        0.1013
     28 C          62.7785   89.7557   15.4744 C.3     1  UNL1        0.1679
     29 N          63.1540   88.3990   15.9924 N.ar    1  UNL1       -0.2078
     30 C          62.7942   87.8376   17.3360 C.ar    1  UNL1        0.2216
     31 N          63.3732   86.4571   17.4318 N.ar    1  UNL1       -0.1048
     32 N          64.0908   86.1653   16.1473 N.ar    1  UNL1       -0.0226
     33 N          63.9553   87.3654   15.2577 N.ar    1  UNL1       -0.0428
@<TRIPOS>BOND
     1     1     2    1
     2     2    28    1
     3    28    29    1
     4    29    30   ar
     5    30    31   ar
     6    31    32   ar
     7    32    33   ar
     8     2     4    1
     9     4     5   ar
    10     5     6   ar
    11     6     7   ar
    12     7     8    1
    13     7     9   ar
    14     9    10   ar
    15    10    11    1
    16     2    12    1
    17    12    13    1
    18    12    14    1
    19    12    15    1
    20    15    16   ar
    21    16    17   ar
    22    17    18   ar
    23    18    21    1
    24    21    22   ar
    25    22    23   ar
    26    23    24   ar
    27    24    25    1
    28    24    26   ar
    29    26    27   ar
    30    18    19   ar
    31    19    20   ar
    32    33    29   ar
    33    10     4   ar
    34    20    15   ar
    35    27    21   ar
    36     1     3    1
@<TRIPOS>MOLECULE
*****
 33 36 0 0 0
SMALL
GASTEIGER

@<TRIPOS>ATOM
      1 O          64.2249   91.2074   15.6536 O.3     1  UNL1       -0.3755
      2 C          63.8264   90.3698   14.4748 C.3     1  UNL1        0.1932
      3 H          64.9933   90.8072   16.0897 H       1  UNL1        0.2110
      4 C          63.6456   89.1855   15.3776 C.ar    1  UNL1        0.0368
      5 C          64.2129   87.8525   14.9887 C.ar    1  UNL1        0.0028
      6 C          64.0320   86.6683   15.8914 C.ar    1  UNL1        0.0295
      7 C          63.2839   86.8171   17.1830 C.ar    1  UNL1        0.1424
      8 F          63.1030   85.6328   18.0857 F       1  UNL1       -0.2041
      9 C          62.7166   88.1501   17.5718 C.ar    1  UNL1        0.0590
     10 C          62.8974   89.3343   16.6691 C.ar    1  UNL1        0.1408
     11 F          62.3301   90.6674   17.0580 F       1  UNL1       -0.2043
     12 C          63.4280   89.5321   13.2961 C.3     1  UNL1        0.3254
     13 F          64.6890   88.8121   12.9196 F       1  UNL1       -0.1949
     14 F          62.0291   90.0652   13.3901 F       1  UNL1       -0.1949
     15 C          63.0296   88.6944   12.1172 C.ar    1  UNL1        0.1218
     16 C          62.7009   89.3494   10.8085 C.ar    1  UNL1        0.0202
     17 C          62.3025   88.5117    9.6297 C.ar    1  UNL1        0.0030
     18 C          62.2328   87.0189    9.7597 C.ar    1  UNL1        0.0207
     19 C          62.5616   86.3639   11.0685 C.ar    1  UNL1        0.0987
     20 N          62.9600   87.2017   12.2472 N.ar    1  UNL1       -0.2427
     21 C          61.8345   86.1812    8.5809 C.ar    1  UNL1        0.0208
     22 C          62.8578   85.3374    7.8804 C.ar    1  UNL1        0.0055
     23 C          62.4595   84.4996    6.7016 C.ar    1  UNL1        0.0497
     24 C          61.0377   84.5057    6.2234 C.ar    1  UNL1        0.2223
     25 F          60.6394   83.6680    5.0446 F       1  UNL1       -0.1832
     26 N          60.0144   85.3496    6.9240 N.ar    1  UNL1       -0.2165
     27 C          60.4128   86.1873    8.1027 C.ar    1  UNL1        0.1013
     28 C          64.0073   91.5540   13.5722 C.3     1  UNL1        0.1679
     29 N          65.3830   91.9579   13.1314 N.ar    1  UNL1       -0.2078
     30 C          65.7188   92.7433   11.8983 C.ar    1  UNL1        0.2216
     31 N          67.2078   92.9182   11.8512 N.ar    1  UNL1       -0.1048
     32 N          67.7924   92.2409   13.0553 N.ar    1  UNL1       -0.0226
     33 N          66.6646   91.6475   13.8464 N.ar    1  UNL1       -0.0428
@<TRIPOS>BOND
     1     1     2    1
     2     2    28    1
     3    28    29    1
     4    29    30   ar
     5    30    31   ar
     6    31    32   ar
     7    32    33   ar
     8     2     4    1
     9     4     5   ar
    10     5     6   ar
    11     6     7   ar
    12     7     8    1
    13     7     9   ar
    14     9    10   ar
    15    10    11    1
    16     2    12    1
    17    12    13    1
    18    12    14    1
    19    12    15    1
    20    15    16   ar
    21    16    17   ar
    22    17    18   ar
    23    18    21    1
    24    21    22   ar
    25    22    23   ar
    26    23    24   ar
    27    24    25    1
    28    24    26   ar
    29    26    27   ar
    30    18    19   ar
    31    19    20   ar
    32    33    29   ar
    33    10     4   ar
    34    20    15   ar
    35    27    21   ar
    36     1     3    1
@<TRIPOS>MOLECULE
*****
 33 36 0 0 0
SMALL
GASTEIGER

@<TRIPOS>ATOM
      1 O          62.6553   95.8508    0.6117 O.3     1  UNL1       -0.3755
      2 C          61.5974   95.0844   -0.1254 C.3     1  UNL1        0.1932
      3 H          63.3948   95.2598    0.8231 H       1  UNL1        0.2110
      4 C          61.4893   94.1275    1.0248 C.ar    1  UNL1        0.0368
      5 C          60.2579   94.1204    1.8812 C.ar    1  UNL1        0.0028
      6 C          60.1497   93.1636    3.0313 C.ar    1  UNL1        0.0295
      7 C          61.2730   92.2140    3.3250 C.ar    1  UNL1        0.1424
      8 F          61.1649   91.2571    4.4752 F       1  UNL1       -0.2041
      9 C          62.5045   92.2211    2.4686 C.ar    1  UNL1        0.0590
     10 C          62.6126   93.1779    1.3184 C.ar    1  UNL1        0.1408
     11 F          63.8441   93.1850    0.4620 F       1  UNL1       -0.2043
     12 C          60.5396   94.3179   -0.8626 C.3     1  UNL1        0.3254
     13 F          61.1777   92.9877   -1.1337 F       1  UNL1       -0.1949
     14 F          59.6182   95.4976   -0.7669 F       1  UNL1       -0.1949
     15 C          59.4817   93.5513   -1.5997 C.ar    1  UNL1        0.1218
     16 C          58.3775   92.8773   -0.8405 C.ar    1  UNL1        0.0202
     17 C          57.3197   92.1108   -1.5777 C.ar    1  UNL1        0.0030
     18 C          57.3660   92.0182   -3.0741 C.ar    1  UNL1        0.0207
     19 C          58.4703   92.6922   -3.8334 C.ar    1  UNL1        0.0987
     20 N          59.5281   93.4588   -3.0962 N.ar    1  UNL1       -0.2427
     21 C          56.3083   91.2517   -3.8113 C.ar    1  UNL1        0.0208
     22 C          55.5412   90.1694   -3.1112 C.ar    1  UNL1        0.0055
     23 C          54.4833   89.4029   -3.8484 C.ar    1  UNL1        0.0497
     24 C          54.1926   89.7186   -5.2857 C.ar    1  UNL1        0.2223
     25 F          53.1348   88.9521   -6.0228 F       1  UNL1       -0.1832
     26 N          54.9598   90.8010   -5.9858 N.ar    1  UNL1       -0.2165
     27 C          56.0176   91.5675   -5.2486 C.ar    1  UNL1        0.1013
     28 C          61.7056   96.0412   -1.2755 C.3     1  UNL1        0.1679
     29 N          62.6644   95.7630   -2.3950 N.ar    1  UNL1       -0.2078
     30 C          62.3632   95.8687   -3.8606 C.ar    1  UNL1        0.2216
     31 N          63.6054   95.5012   -4.6169 N.ar    1  UNL1       -0.1048
     32 N          64.6744   95.1684   -3.6186 N.ar    1  UNL1       -0.0226
     33 N          64.0928   95.3302   -2.2455 N.ar    1  UNL1       -0.0428
@<TRIPOS>BOND
     1     1     2    1
     2     2    28    1
     3    28    29    1
     4    29    30   ar
     5    30    31   ar
     6    31    32   ar
     7    32    33   ar
     8     2     4    1
     9     4     5   ar
    10     5     6   ar
    11     6     7   ar
    12     7     8    1
    13     7     9   ar
    14     9    10   ar
    15    10    11    1
    16     2    12    1
    17    12    13    1
    18    12    14    1
    19    12    15    1
    20    15    16   ar
    21    16    17   ar
    22    17    18   ar
    23    18    21    1
    24    21    22   ar
    25    22    23   ar
    26    23    24   ar
    27    24    25    1
    28    24    26   ar
    29    26    27   ar
    30    18    19   ar
    31    19    20   ar
    32    33    29   ar
    33    10     4   ar
    34    20    15   ar
    35    27    21   ar
    36     1     3    1
@<TRIPOS>MOLECULE
*****
 33 36 0 0 0
SMALL
GASTEIGER

@<TRIPOS>ATOM
      1 O          60.8347   85.1743   10.5895 O.3     1  UNL1       -0.3755
      2 C          61.6863   86.2117   11.2593 C.3     1  UNL1        0.1932
      3 H          60.3367   84.6822   11.2609 H       1  UNL1        0.2110
      4 C          62.3628   85.1391   12.0604 C.ar    1  UNL1        0.0368
      5 C          62.0750   85.0036   13.5263 C.ar    1  UNL1        0.0028
      6 C          62.7514   83.9310   14.3275 C.ar    1  UNL1        0.0295
      7 C          63.7157   82.9939   13.6628 C.ar    1  UNL1        0.1424
      8 F          64.3923   81.9213   14.4640 F       1  UNL1       -0.2041
      9 C          64.0036   83.1294   12.1970 C.ar    1  UNL1        0.0590
     10 C          63.3271   84.2019   11.3958 C.ar    1  UNL1        0.1408
     11 F          63.6150   84.3374    9.9299 F       1  UNL1       -0.2043
     12 C          62.5378   87.2491   11.9290 C.3     1  UNL1        0.3254
     13 F          63.7030   86.4713   12.4653 F       1  UNL1       -0.1949
     14 F          61.5494   88.3094   11.5434 F       1  UNL1       -0.1949
     15 C          63.3895   88.2865   12.5988 C.ar    1  UNL1        0.1218
     16 C          64.0934   87.9637   13.8834 C.ar    1  UNL1        0.0202
     17 C          64.9451   89.0012   14.5532 C.ar    1  UNL1        0.0030
     18 C          65.0927   90.3614   13.9383 C.ar    1  UNL1        0.0207
     19 C          64.3887   90.6841   12.6536 C.ar    1  UNL1        0.0987
     20 N          63.5371   89.6467   11.9839 N.ar    1  UNL1       -0.2427
     21 C          65.9443   91.3988   14.6080 C.ar    1  UNL1        0.0208
     22 C          67.2920   91.7403   14.0450 C.ar    1  UNL1        0.0055
     23 C          68.1436   92.7777   14.7147 C.ar    1  UNL1        0.0497
     24 C          67.6475   93.4736   15.9474 C.ar    1  UNL1        0.2223
     25 F          68.4991   94.5110   16.6171 F       1  UNL1       -0.1832
     26 N          66.2997   93.1321   16.5104 N.ar    1  UNL1       -0.2165
     27 C          65.4481   92.0947   15.8407 C.ar    1  UNL1        0.1013
     28 C          61.0098   87.2842   10.4581 C.3     1  UNL1        0.1679
     29 N          60.3067   86.9349    9.1799 N.ar    1  UNL1       -0.2078
     30 C          60.8951   86.1724    8.0300 C.ar    1  UNL1        0.2216
     31 N          59.8439   86.0530    6.9666 N.ar    1  UNL1       -0.1048
     32 N          58.6058   86.7418    7.4593 N.ar    1  UNL1       -0.0226
     33 N          58.8919   87.2869    8.8272 N.ar    1  UNL1       -0.0428
@<TRIPOS>BOND
     1     1     2    1
     2     2    28    1
     3    28    29    1
     4    29    30   ar
     5    30    31   ar
     6    31    32   ar
     7    32    33   ar
     8     2     4    1
     9     4     5   ar
    10     5     6   ar
    11     6     7   ar
    12     7     8    1
    13     7     9   ar
    14     9    10   ar
    15    10    11    1
    16     2    12    1
    17    12    13    1
    18    12    14    1
    19    12    15    1
    20    15    16   ar
    21    16    17   ar
    22    17    18   ar
    23    18    21    1
    24    21    22   ar
    25    22    23   ar
    26    23    24   ar
    27    24    25    1
    28    24    26   ar
    29    26    27   ar
    30    18    19   ar
    31    19    20   ar
    32    33    29   ar
    33    10     4   ar
    34    20    15   ar
    35    27    21   ar
    36     1     3    1
@<TRIPOS>MOLECULE
*****
 33 36 0 0 0
SMALL
GASTEIGER

@<TRIPOS>ATOM
      1 O          63.2378   92.5418   11.6014 O.3     1  UNL1       -0.3755
      2 C          63.2044   91.0605   11.8347 C.3     1  UNL1        0.1932
      3 H          64.1202   92.8008   11.2930 H       1  UNL1        0.2110
      4 C          64.3344   91.1890   12.8128 C.ar    1  UNL1        0.0368
      5 C          64.1114   90.8730   14.2621 C.ar    1  UNL1        0.0028
      6 C          65.2413   91.0016   15.2402 C.ar    1  UNL1        0.0295
      7 C          66.5942   91.4461   14.7690 C.ar    1  UNL1        0.1424
      8 F          67.7242   91.5747   15.7471 F       1  UNL1       -0.2041
      9 C          66.8171   91.7622   13.3197 C.ar    1  UNL1        0.0590
     10 C          65.6872   91.6336   12.3416 C.ar    1  UNL1        0.1408
     11 F          65.9102   91.9497   10.8923 F       1  UNL1       -0.2043
     12 C          63.1710   89.5791   12.0679 C.3     1  UNL1        0.3254
     13 F          62.8530   89.4487   13.5281 F       1  UNL1       -0.1949
     14 F          63.4903   89.3442   10.6213 F       1  UNL1       -0.1949
     15 C          63.1375   88.0977   12.3012 C.ar    1  UNL1        0.1218
     16 C          62.4754   87.1959   11.3021 C.ar    1  UNL1        0.0202
     17 C          62.4419   85.7145   11.5354 C.ar    1  UNL1        0.0030
     18 C          63.0707   85.1349   12.7678 C.ar    1  UNL1        0.0207
     19 C          63.7329   86.0369   13.7669 C.ar    1  UNL1        0.0987
     20 N          63.7663   87.5182   13.5336 N.ar    1  UNL1       -0.2427
     21 C          63.0373   83.6536   13.0011 C.ar    1  UNL1        0.0208
     22 C          62.8650   82.7157   11.8433 C.ar    1  UNL1        0.0055
     23 C          62.8316   81.2343   12.0766 C.ar    1  UNL1        0.0497
     24 C          62.9706   80.6909   13.4678 C.ar    1  UNL1        0.2223
     25 F          62.9372   79.2095   13.7011 F       1  UNL1       -0.1832
     26 N          63.1429   81.6288   14.6256 N.ar    1  UNL1       -0.2165
     27 C          63.1763   83.1102   14.3923 C.ar    1  UNL1        0.1013
     28 C          62.0744   90.9320   10.8566 C.3     1  UNL1        0.1679
     29 N          60.8791   90.0923   11.1976 N.ar    1  UNL1       -0.2078
     30 C          60.1005   89.2375   10.2421 C.ar    1  UNL1        0.2216
     31 N          58.9928   88.5769   11.0079 N.ar    1  UNL1       -0.1048
     32 N          59.0867   89.0235   12.4368 N.ar    1  UNL1       -0.0226
     33 N          60.2525   89.9601   12.5540 N.ar    1  UNL1       -0.0428
@<TRIPOS>BOND
     1     1     2    1
     2     2    28    1
     3    28    29    1
     4    29    30   ar
     5    30    31   ar
     6    31    32   ar
     7    32    33   ar
     8     2     4    1
     9     4     5   ar
    10     5     6   ar
    11     6     7   ar
    12     7     8    1
    13     7     9   ar
    14     9    10   ar
    15    10    11    1
    16     2    12    1
    17    12    13    1
    18    12    14    1
    19    12    15    1
    20    15    16   ar
    21    16    17   ar
    22    17    18   ar
    23    18    21    1
    24    21    22   ar
    25    22    23   ar
    26    23    24   ar
    27    24    25    1
    28    24    26   ar
    29    26    27   ar
    30    18    19   ar
    31    19    20   ar
    32    33    29   ar
    33    10     4   ar
    34    20    15   ar
    35    27    21   ar
    36     1     3    1
