@<TRIPOS>MOLECULE
*****
 32 34 0 0 0
SMALL
GASTEIGER

@<TRIPOS>ATOM
      1 C          61.5397   89.1815   10.4706 C.3     1  UNL1        0.1812
      2 O          62.7576   88.4292   10.0224 O.3     1  UNL1       -0.3784
      3 H          62.6120   87.4776   10.1421 H       1  UNL1        0.2106
      4 C          60.3219   89.9338   10.9187 C.3     1  UNL1        0.4197
      5 F          59.1040   90.6861   11.3669 F       1  UNL1       -0.1676
      6 F          60.6555   89.6226   12.3477 F       1  UNL1       -0.1676
      7 F          59.9884   90.2450    9.4898 F       1  UNL1       -0.1676
      8 C          60.8704   87.8868   10.8253 C.3     1  UNL1        0.0398
      9 C          61.6659   86.6155   10.8577 C.3     1  UNL1        0.0212
     10 C          60.7964   86.0439    9.7773 C.3     1  UNL1        0.0044
     11 C          62.5354   87.1870   11.9381 C.3     1  UNL1        0.0044
     12 C          62.9775   85.6026    8.3569 C.3     1  UNL1        0.0307
     13 C          63.1172   84.8378    9.6397 C.ar    1  UNL1       -0.0257
     14 C          63.9127   83.5665    9.6721 C.ar    1  UNL1       -0.0023
     15 C          64.0524   82.8016   10.9548 C.ar    1  UNL1        0.0293
     16 C          63.3966   83.3081   12.2053 C.ar    1  UNL1        0.1398
     17 F          63.5363   82.5432   13.4880 F       1  UNL1       -0.2042
     18 C          62.6011   84.5793   12.1729 C.ar    1  UNL1        0.0250
     19 C          62.4614   85.3442   10.8901 C.ar    1  UNL1       -0.0244
     20 C          62.2090   90.4762   10.1158 C.3     1  UNL1        0.0811
     21 C          63.2811   91.0342   11.0041 C.2     1  UNL1        0.0614
     22 C          63.5118   90.6728   12.4416 C.2     1  UNL1        0.0163
     23 C          64.6841   91.4669   12.9369 C.2     1  UNL1        0.0264
     24 C          65.3657   91.5241   14.2718 C.2     1  UNL1        0.0900
     25 C          66.5411   92.4335   14.4755 C.2     1  UNL1        0.3136
     26 N          67.2227   92.4907   15.8104 N.pl3   1  UNL1       -0.2465
     27 N          67.0349   93.2856   13.3441 N.2     1  UNL1       -0.0588
     28 C          66.3533   93.2285   12.0092 C.3     1  UNL1        0.3085
     29 C          65.1779   92.3191   11.8055 C.2     1  UNL1        0.1121
     30 N          64.3108   92.0517   10.6110 N.2     1  UNL1       -0.2495
     31 H          66.8986   91.9313   16.5530 H       1  UNL1        0.2884
     32 H          67.9941   93.0875   15.9441 H       1  UNL1        0.2884
@<TRIPOS>BOND
     1    12    13    1
     2    13    14   ar
     3    14    15   ar
     4    15    16   ar
     5    16    17    1
     6    16    18   ar
     7    18    19   ar
     8    19     9    1
     9     9    10    1
    10     9    11    1
    11     9     8    1
    12     8     1    1
    13     1     2    1
    14     1    20    1
    15    20    21    1
    16    21    22    2
    17    22    23    1
    18    23    24    2
    19    24    25    1
    20    25    26    1
    21    25    27    2
    22    27    28    1
    23    28    29    1
    24    29    30    2
    25     1     4    1
    26     4     5    1
    27     4     6    1
    28     4     7    1
    29    19    13   ar
    30    30    21    1
    31    29    23    1
    32     2     3    1
    33    26    31    1
    34    26    32    1
@<TRIPOS>MOLECULE
*****
 32 34 0 0 0
SMALL
GASTEIGER

@<TRIPOS>ATOM
      1 C          61.8909   87.0234   10.2651 C.3     1  UNL1        0.1812
      2 O          63.0342   87.1287   11.2304 O.3     1  UNL1       -0.3784
      3 H          63.5827   86.3310   11.1702 H       1  UNL1        0.2106
      4 C          60.7476   86.9180    9.2998 C.3     1  UNL1        0.4197
      5 F          59.6043   86.8127    8.3345 F       1  UNL1       -0.1676
      6 F          61.6687   86.3283    8.2732 F       1  UNL1       -0.1676
      7 F          59.8266   87.5077   10.3264 F       1  UNL1       -0.1676
      8 C          62.3864   85.6776    9.8250 C.3     1  UNL1        0.0398
      9 C          62.6663   84.6119   10.8428 C.3     1  UNL1        0.0212
     10 C          63.7240   84.0358    9.9486 C.3     1  UNL1        0.0044
     11 C          61.6087   85.1880   11.7369 C.3     1  UNL1        0.0044
     12 C          63.8803   85.3444   13.4866 C.3     1  UNL1        0.0307
     13 C          63.5532   83.9124   13.1825 C.ar    1  UNL1       -0.0257
     14 C          63.8331   82.8466   14.2002 C.ar    1  UNL1       -0.0023
     15 C          63.5061   81.4147   13.8961 C.ar    1  UNL1        0.0293
     16 C          62.8991   81.0484   12.5741 C.ar    1  UNL1        0.1398
     17 F          62.5721   79.6165   12.2700 F       1  UNL1       -0.2042
     18 C          62.6192   82.1141   11.5564 C.ar    1  UNL1        0.0250
     19 C          62.9462   83.5462   11.8606 C.ar    1  UNL1       -0.0244
     20 C          61.3954   88.3690   10.7051 C.3     1  UNL1        0.0811
     21 C          62.3642   89.3962   11.2113 C.2     1  UNL1        0.0614
     22 C          63.0453   90.4478   10.3865 C.2     1  UNL1        0.0163
     23 C          63.9241   91.2537   11.2966 C.2     1  UNL1        0.0264
     24 C          64.8321   92.4201   11.0414 C.2     1  UNL1        0.0900
     25 C          65.6022   93.0329   12.1734 C.2     1  UNL1        0.3136
     26 N          66.5102   94.1992   11.9182 N.pl3   1  UNL1       -0.2465
     27 N          65.4642   92.4793   13.5607 N.2     1  UNL1       -0.0588
     28 C          64.5562   91.3130   13.8160 C.3     1  UNL1        0.3085
     29 C          63.7862   90.7002   12.6840 C.2     1  UNL1        0.1121
     30 N          62.8221   89.5521   12.6312 N.2     1  UNL1       -0.2495
     31 H          66.6007   94.5625   11.0077 H       1  UNL1        0.2884
     32 H          67.0156   94.6014   12.6612 H       1  UNL1        0.2884
@<TRIPOS>BOND
     1    12    13    1
     2    13    14   ar
     3    14    15   ar
     4    15    16   ar
     5    16    17    1
     6    16    18   ar
     7    18    19   ar
     8    19     9    1
     9     9    10    1
    10     9    11    1
    11     9     8    1
    12     8     1    1
    13     1     2    1
    14     1    20    1
    15    20    21    1
    16    21    22    2
    17    22    23    1
    18    23    24    2
    19    24    25    1
    20    25    26    1
    21    25    27    2
    22    27    28    1
    23    28    29    1
    24    29    30    2
    25     1     4    1
    26     4     5    1
    27     4     6    1
    28     4     7    1
    29    19    13   ar
    30    30    21    1
    31    29    23    1
    32     2     3    1
    33    26    31    1
    34    26    32    1
@<TRIPOS>MOLECULE
*****
 32 34 0 0 0
SMALL
GASTEIGER

@<TRIPOS>ATOM
      1 C          63.6035   87.1185   16.0491 C.3     1  UNL1        0.1812
      2 O          64.2125   87.2780   14.6876 O.3     1  UNL1       -0.3784
      3 H          64.5997   86.4345   14.4058 H       1  UNL1        0.2106
      4 C          62.9946   86.9591   17.4106 C.3     1  UNL1        0.4197
      5 F          62.3855   86.7996   18.7721 F       1  UNL1       -0.1676
      6 F          63.9490   85.8403   17.7065 F       1  UNL1       -0.1676
      7 F          62.0402   88.0778   17.1148 F       1  UNL1       -0.1676
      8 C          64.0232   85.6785   16.0682 C.3     1  UNL1        0.0398
      9 C          63.6888   84.7844   14.9112 C.3     1  UNL1        0.0212
     10 C          62.2554   84.7501   15.3520 C.3     1  UNL1        0.0044
     11 C          65.1221   84.8187   14.4704 C.3     1  UNL1        0.0044
     12 C          63.0044   85.9754   12.2441 C.3     1  UNL1        0.0307
     13 C          63.0122   84.4858   12.4206 C.ar    1  UNL1       -0.0257
     14 C          62.6777   83.5917   11.2636 C.ar    1  UNL1       -0.0023
     15 C          62.6854   82.1022   11.4401 C.ar    1  UNL1        0.0293
     16 C          63.0276   81.5066   12.7737 C.ar    1  UNL1        0.1398
     17 F          63.0353   80.0171   12.9501 F       1  UNL1       -0.2042
     18 C          63.3621   82.4007   13.9307 C.ar    1  UNL1        0.0250
     19 C          63.3543   83.8903   13.7542 C.ar    1  UNL1       -0.0244
     20 C          63.1838   88.5585   16.0300 C.3     1  UNL1        0.0811
     21 C          63.6680   89.4663   14.9386 C.2     1  UNL1        0.0614
     22 C          64.8356   90.4041   15.0248 C.2     1  UNL1        0.0163
     23 C          64.9588   91.1133   13.7088 C.2     1  UNL1        0.0264
     24 C          65.9238   92.1493   13.2134 C.2     1  UNL1        0.0900
     25 C          65.7974   92.6858   11.8183 C.2     1  UNL1        0.3136
     26 N          66.7624   93.7218   11.3229 N.pl3   1  UNL1       -0.2465
     27 N          64.7060   92.1863   10.9187 N.2     1  UNL1       -0.0588
     28 C          63.7409   91.1503   11.4141 C.3     1  UNL1        0.3085
     29 C          63.8673   90.6138   12.8091 C.2     1  UNL1        0.1121
     30 N          63.0696   89.5959   13.5692 N.2     1  UNL1       -0.2495
     31 H          67.4787   94.0496   11.9133 H       1  UNL1        0.2884
     32 H          66.6794   94.0740   10.4073 H       1  UNL1        0.2884
@<TRIPOS>BOND
     1    12    13    1
     2    13    14   ar
     3    14    15   ar
     4    15    16   ar
     5    16    17    1
     6    16    18   ar
     7    18    19   ar
     8    19     9    1
     9     9    10    1
    10     9    11    1
    11     9     8    1
    12     8     1    1
    13     1     2    1
    14     1    20    1
    15    20    21    1
    16    21    22    2
    17    22    23    1
    18    23    24    2
    19    24    25    1
    20    25    26    1
    21    25    27    2
    22    27    28    1
    23    28    29    1
    24    29    30    2
    25     1     4    1
    26     4     5    1
    27     4     6    1
    28     4     7    1
    29    19    13   ar
    30    30    21    1
    31    29    23    1
    32     2     3    1
    33    26    31    1
    34    26    32    1
@<TRIPOS>MOLECULE
*****
 32 34 0 0 0
SMALL
GASTEIGER

@<TRIPOS>ATOM
      1 C          63.6914   87.0417   15.8396 C.3     1  UNL1        0.1812
      2 O          64.2731   87.1780   14.4637 O.3     1  UNL1       -0.3784
      3 H          64.5185   86.3016   14.1281 H       1  UNL1        0.2106
      4 C          63.1098   86.9054   17.2154 C.3     1  UNL1        0.4197
      5 F          62.5281   86.7690   18.5914 F       1  UNL1       -0.1676
      6 F          62.3620   88.1920   17.0268 F       1  UNL1       -0.1676
      7 F          63.8575   85.6188   17.4041 F       1  UNL1       -0.1676
      8 C          63.8883   85.5560   15.7756 C.3     1  UNL1        0.0398
      9 C          63.7180   84.8322   14.4729 C.3     1  UNL1        0.0212
     10 C          65.2069   84.8070   14.2923 C.3     1  UNL1        0.0044
     11 C          62.2291   84.8574   14.6534 C.3     1  UNL1        0.0044
     12 C          63.5530   81.8370   14.4313 C.3     1  UNL1        0.0307
     13 C          63.4653   82.6110   13.1493 C.ar    1  UNL1       -0.0257
     14 C          63.2950   81.8872   11.8465 C.ar    1  UNL1       -0.0023
     15 C          63.2073   82.6611   10.5645 C.ar    1  UNL1        0.0293
     16 C          63.2898   84.1587   10.5853 C.ar    1  UNL1        0.1398
     17 F          63.2020   84.9325    9.3034 F       1  UNL1       -0.2042
     18 C          63.4600   84.8824   11.8881 C.ar    1  UNL1        0.0250
     19 C          63.5478   84.1085   13.1701 C.ar    1  UNL1       -0.0244
     20 C          63.4946   88.5273   15.9035 C.3     1  UNL1        0.0811
     21 C          63.6766   89.3617   14.6704 C.2     1  UNL1        0.0614
     22 C          64.7535   90.3818   14.4471 C.2     1  UNL1        0.0163
     23 C          64.5562   90.9731   13.0828 C.2     1  UNL1        0.0264
     24 C          65.3133   92.0231   12.3248 C.2     1  UNL1        0.0900
     25 C          64.8715   92.4184   10.9469 C.2     1  UNL1        0.3136
     26 N          65.6285   93.4683   10.1889 N.pl3   1  UNL1       -0.2465
     27 N          63.6727   91.7637   10.3270 N.2     1  UNL1       -0.0588
     28 C          62.9157   90.7138   11.0849 C.3     1  UNL1        0.3085
     29 C          63.3574   90.3185   12.4628 C.2     1  UNL1        0.1121
     30 N          62.8138   89.3225   13.4440 N.2     1  UNL1       -0.2495
     31 H          66.4153   93.8980   10.5958 H       1  UNL1        0.2884
     32 H          65.3386   93.7278    9.2846 H       1  UNL1        0.2884
@<TRIPOS>BOND
     1    12    13    1
     2    13    14   ar
     3    14    15   ar
     4    15    16   ar
     5    16    17    1
     6    16    18   ar
     7    18    19   ar
     8    19     9    1
     9     9    10    1
    10     9    11    1
    11     9     8    1
    12     8     1    1
    13     1     2    1
    14     1    20    1
    15    20    21    1
    16    21    22    2
    17    22    23    1
    18    23    24    2
    19    24    25    1
    20    25    26    1
    21    25    27    2
    22    27    28    1
    23    28    29    1
    24    29    30    2
    25     1     4    1
    26     4     5    1
    27     4     6    1
    28     4     7    1
    29    19    13   ar
    30    30    21    1
    31    29    23    1
    32     2     3    1
    33    26    31    1
    34    26    32    1
@<TRIPOS>MOLECULE
*****
 32 34 0 0 0
SMALL
GASTEIGER

@<TRIPOS>ATOM
      1 C          61.4576   87.3831    9.5826 C.3     1  UNL1        0.1812
      2 O          62.8330   87.5821   10.1471 O.3     1  UNL1       -0.3784
      3 H          63.2838   86.7255   10.2096 H       1  UNL1        0.2106
      4 C          60.0822   87.1841    9.0181 C.3     1  UNL1        0.4197
      5 F          58.7068   86.9851    8.4535 F       1  UNL1       -0.1676
      6 F          59.4988   87.9469   10.1705 F       1  UNL1       -0.1676
      7 F          60.6655   86.4214    7.8657 F       1  UNL1       -0.1676
      8 C          61.7108   85.9078    9.4855 C.3     1  UNL1        0.0398
      9 C          62.4063   85.1910   10.6047 C.3     1  UNL1        0.0212
     10 C          61.4262   85.7674   11.5830 C.3     1  UNL1        0.0044
     11 C          63.3864   84.6146    9.6264 C.3     1  UNL1        0.0044
     12 C          62.9282   82.2436   10.4031 C.3     1  UNL1        0.0307
     13 C          63.3628   83.0005   11.6230 C.ar    1  UNL1       -0.0257
     14 C          64.0583   82.2838   12.7422 C.ar    1  UNL1       -0.0023
     15 C          64.4929   83.0406   13.9621 C.ar    1  UNL1        0.0293
     16 C          64.2319   84.5144   14.0629 C.ar    1  UNL1        0.1398
     17 F          64.6665   85.2712   15.2828 F       1  UNL1       -0.2042
     18 C          63.5364   85.2311   12.9438 C.ar    1  UNL1        0.0250
     19 C          63.1018   84.4742   11.7238 C.ar    1  UNL1       -0.0244
     20 C          61.2044   88.8584    9.6796 C.3     1  UNL1        0.0811
     21 C          62.1687   89.7378   10.4189 C.2     1  UNL1        0.0614
     22 C          63.0517   90.7860    9.8092 C.2     1  UNL1        0.0163
     23 C          63.8481   91.4195   10.9112 C.2     1  UNL1        0.0264
     24 C          64.8787   92.5094   10.9061 C.2     1  UNL1        0.0900
     25 C          65.5184   92.9427   12.1918 C.2     1  UNL1        0.3136
     26 N          66.5490   94.0327   12.1867 N.pl3   1  UNL1       -0.2465
     27 N          65.1276   92.2861   13.4826 N.2     1  UNL1       -0.0588
     28 C          64.0971   91.1962   13.4877 C.3     1  UNL1        0.3085
     29 C          63.4573   90.7629   12.2021 C.2     1  UNL1        0.1121
     30 N          62.4194   89.7235   11.8978 N.2     1  UNL1       -0.2495
     31 H          66.8054   94.4636   11.3395 H       1  UNL1        0.2884
     32 H          66.9688   94.3171   13.0306 H       1  UNL1        0.2884
@<TRIPOS>BOND
     1    12    13    1
     2    13    14   ar
     3    14    15   ar
     4    15    16   ar
     5    16    17    1
     6    16    18   ar
     7    18    19   ar
     8    19     9    1
     9     9    10    1
    10     9    11    1
    11     9     8    1
    12     8     1    1
    13     1     2    1
    14     1    20    1
    15    20    21    1
    16    21    22    2
    17    22    23    1
    18    23    24    2
    19    24    25    1
    20    25    26    1
    21    25    27    2
    22    27    28    1
    23    28    29    1
    24    29    30    2
    25     1     4    1
    26     4     5    1
    27     4     6    1
    28     4     7    1
    29    19    13   ar
    30    30    21    1
    31    29    23    1
    32     2     3    1
    33    26    31    1
    34    26    32    1
@<TRIPOS>MOLECULE
*****
 32 34 0 0 0
SMALL
GASTEIGER

@<TRIPOS>ATOM
      1 C          62.0921   88.4271   11.1660 C.3     1  UNL1        0.1812
      2 O          63.2151   88.1201   12.1118 O.3     1  UNL1       -0.3784
      3 H          63.3800   88.8899   12.6786 H       1  UNL1        0.2106
      4 C          60.9691   88.7340   10.2202 C.3     1  UNL1        0.4197
      5 F          59.8460   89.0410    9.2744 F       1  UNL1       -0.1676
      6 F          61.7115   88.0438    9.1146 F       1  UNL1       -0.1676
      7 F          60.2266   89.4243   11.3258 F       1  UNL1       -0.1676
      8 C          61.9655   89.7982   11.7612 C.3     1  UNL1        0.0398
      9 C          63.1870   90.5203   12.2476 C.3     1  UNL1        0.0212
     10 C          62.7543   90.2966   13.6663 C.3     1  UNL1        0.0044
     11 C          63.6197   90.7440   10.8288 C.3     1  UNL1        0.0044
     12 C          64.6840   89.4948   14.6366 C.3     1  UNL1        0.0307
     13 C          65.1570   90.7297   13.9284 C.ar    1  UNL1       -0.0257
     14 C          66.3784   91.4518   14.4148 C.ar    1  UNL1       -0.0023
     15 C          66.8514   92.6866   13.7067 C.ar    1  UNL1        0.0293
     16 C          66.1029   93.1994   12.5122 C.ar    1  UNL1        0.1398
     17 F          66.5759   94.4343   11.8041 F       1  UNL1       -0.2042
     18 C          64.8814   92.4773   12.0258 C.ar    1  UNL1        0.0250
     19 C          64.4085   91.2424   12.7339 C.ar    1  UNL1       -0.0244
     20 C          62.2186   87.0561   10.5709 C.3     1  UNL1        0.0811
     21 C          62.4341   85.8687   11.4618 C.2     1  UNL1        0.0614
     22 C          62.4481   84.4325   11.0288 C.2     1  UNL1        0.0163
     23 C          62.6961   83.5852   12.2415 C.2     1  UNL1        0.0264
     24 C          62.8131   82.1007   12.4218 C.2     1  UNL1        0.0900
     25 C          63.0693   81.5286   13.7846 C.2     1  UNL1        0.3136
     26 N          63.1863   80.0441   13.9650 N.pl3   1  UNL1       -0.2465
     27 N          63.2085   82.4411   14.9670 N.2     1  UNL1       -0.0588
     28 C          63.0915   83.9256   14.7867 C.3     1  UNL1        0.3085
     29 C          62.8353   84.4977   13.4240 C.2     1  UNL1        0.1121
     30 N          62.6733   85.9090   12.9420 N.2     1  UNL1       -0.2495
     31 H          63.0950   79.4453   13.1889 H       1  UNL1        0.2884
     32 H          63.3545   79.6687   14.8594 H       1  UNL1        0.2884
@<TRIPOS>BOND
     1    12    13    1
     2    13    14   ar
     3    14    15   ar
     4    15    16   ar
     5    16    17    1
     6    16    18   ar
     7    18    19   ar
     8    19     9    1
     9     9    10    1
    10     9    11    1
    11     9     8    1
    12     8     1    1
    13     1     2    1
    14     1    20    1
    15    20    21    1
    16    21    22    2
    17    22    23    1
    18    23    24    2
    19    24    25    1
    20    25    26    1
    21    25    27    2
    22    27    28    1
    23    28    29    1
    24    29    30    2
    25     1     4    1
    26     4     5    1
    27     4     6    1
    28     4     7    1
    29    19    13   ar
    30    30    21    1
    31    29    23    1
    32     2     3    1
    33    26    31    1
    34    26    32    1
@<TRIPOS>MOLECULE
*****
 32 34 0 0 0
SMALL
GASTEIGER

@<TRIPOS>ATOM
      1 C          62.7727   88.9808   12.3371 C.3     1  UNL1        0.1812
      2 O          63.8752   88.3496   13.1348 O.3     1  UNL1       -0.3784
      3 H          64.1086   88.9280   13.8778 H       1  UNL1        0.2106
      4 C          61.6703   89.6119   11.5395 C.3     1  UNL1        0.4197
      5 F          60.5679   90.2430   10.7417 F       1  UNL1       -0.1676
      6 F          60.8688   89.7972   12.7938 F       1  UNL1       -0.1676
      7 F          62.4718   89.4266   10.2852 F       1  UNL1       -0.1676
      8 C          62.7658   90.1525   13.2737 C.3     1  UNL1        0.0398
      9 C          64.0614   90.7435   13.7450 C.3     1  UNL1        0.0212
     10 C          64.1194   91.5983   12.5137 C.3     1  UNL1        0.0044
     11 C          64.0035   89.8888   14.9763 C.3     1  UNL1        0.0044
     12 C          64.2099   92.0907   16.4214 C.3     1  UNL1        0.0307
     13 C          65.4313   92.0081   15.5545 C.ar    1  UNL1       -0.0257
     14 C          66.7269   92.5992   16.0258 C.ar    1  UNL1       -0.0023
     15 C          67.9482   92.5167   15.1589 C.ar    1  UNL1        0.0293
     16 C          67.8740   91.8431   13.8206 C.ar    1  UNL1        0.1398
     17 F          69.0953   91.7606   12.9537 F       1  UNL1       -0.2042
     18 C          66.5784   91.2521   13.3493 C.ar    1  UNL1        0.0250
     19 C          65.3570   91.3346   14.2163 C.ar    1  UNL1       -0.0244
     20 C          62.7796   87.8091   11.4006 C.3     1  UNL1        0.0811
     21 C          62.8209   86.4127   11.9468 C.2     1  UNL1        0.0614
     22 C          62.4622   85.1626   11.1993 C.2     1  UNL1        0.0163
     23 C          62.6478   83.9985   12.1268 C.2     1  UNL1        0.0264
     24 C          62.4469   82.5238   11.9395 C.2     1  UNL1        0.0900
     25 C          62.7194   81.5798   13.0729 C.2     1  UNL1        0.3136
     26 N          62.5185   80.1051   12.8855 N.pl3   1  UNL1       -0.2465
     27 N          63.1928   82.1103   14.3936 N.2     1  UNL1       -0.0588
     28 C          63.3938   83.5849   14.5810 C.3     1  UNL1        0.3085
     29 C          63.1213   84.5290   13.4476 C.2     1  UNL1        0.1121
     30 N          63.2283   86.0211   13.3363 N.2     1  UNL1       -0.2495
     31 H          62.2077   79.7569   12.0186 H       1  UNL1        0.2884
     32 H          62.6973   79.4855   13.6293 H       1  UNL1        0.2884
@<TRIPOS>BOND
     1    12    13    1
     2    13    14   ar
     3    14    15   ar
     4    15    16   ar
     5    16    17    1
     6    16    18   ar
     7    18    19   ar
     8    19     9    1
     9     9    10    1
    10     9    11    1
    11     9     8    1
    12     8     1    1
    13     1     2    1
    14     1    20    1
    15    20    21    1
    16    21    22    2
    17    22    23    1
    18    23    24    2
    19    24    25    1
    20    25    26    1
    21    25    27    2
    22    27    28    1
    23    28    29    1
    24    29    30    2
    25     1     4    1
    26     4     5    1
    27     4     6    1
    28     4     7    1
    29    19    13   ar
    30    30    21    1
    31    29    23    1
    32     2     3    1
    33    26    31    1
    34    26    32    1
@<TRIPOS>MOLECULE
*****
 32 34 0 0 0
SMALL
GASTEIGER

@<TRIPOS>ATOM
      1 C          63.4601   90.6571   12.3327 C.3     1  UNL1        0.1812
      2 O          63.3265   91.5063   11.1035 O.3     1  UNL1       -0.3784
      3 H          62.4048   91.4952   10.8015 H       1  UNL1        0.2106
      4 C          63.5938   89.8079   13.5619 C.3     1  UNL1        0.4197
      5 F          63.7274   88.9586   14.7911 F       1  UNL1       -0.1676
      6 F          63.2672   90.9956   14.4180 F       1  UNL1       -0.1676
      7 F          63.9203   88.6202   12.7059 F       1  UNL1       -0.1676
      8 C          61.9955   90.3386   12.2720 C.3     1  UNL1        0.0398
      9 C          61.4576   89.4927   11.1562 C.3     1  UNL1        0.0212
     10 C          62.7537   89.6441   10.4165 C.3     1  UNL1        0.0044
     11 C          60.1615   89.3412   11.8960 C.3     1  UNL1        0.0044
     12 C          61.8153   86.5149   11.2249 C.3     1  UNL1        0.0307
     13 C          61.0984   87.1579   10.0748 C.ar    1  UNL1       -0.0257
     14 C          60.5605   86.3119    8.9590 C.ar    1  UNL1       -0.0023
     15 C          59.8437   86.9548    7.8089 C.ar    1  UNL1        0.0293
     16 C          59.6648   88.4438    7.7745 C.ar    1  UNL1        0.1398
     17 F          58.9480   89.0867    6.6244 F       1  UNL1       -0.2042
     18 C          60.2028   89.2897    8.8903 C.ar    1  UNL1        0.0250
     19 C          60.9196   88.6467   10.0405 C.ar    1  UNL1       -0.0244
     20 C          64.9247   90.9754   12.3935 C.3     1  UNL1        0.0811
     21 C          65.4399   92.2522   11.7982 C.2     1  UNL1        0.0614
     22 C          66.0494   92.4071   10.4363 C.2     1  UNL1        0.0163
     23 C          66.4223   93.8488   10.2566 C.2     1  UNL1        0.0264
     24 C          67.0580   94.5865    9.1156 C.2     1  UNL1        0.0900
     25 C          67.3148   96.0603    9.2255 C.2     1  UNL1        0.3136
     26 N          67.9505   96.7979    8.0845 N.pl3   1  UNL1       -0.2465
     27 N          66.9358   96.7964   10.4763 N.2     1  UNL1       -0.0588
     28 C          66.3001   96.0588   11.6172 C.3     1  UNL1        0.3085
     29 C          66.0433   94.5851   11.5074 C.2     1  UNL1        0.1121
     30 N          65.4362   93.5982   12.4602 N.2     1  UNL1       -0.2495
     31 H          68.1992   96.3148    7.2636 H       1  UNL1        0.2884
     32 H          68.1190   97.7652    8.1566 H       1  UNL1        0.2884
@<TRIPOS>BOND
     1    12    13    1
     2    13    14   ar
     3    14    15   ar
     4    15    16   ar
     5    16    17    1
     6    16    18   ar
     7    18    19   ar
     8    19     9    1
     9     9    10    1
    10     9    11    1
    11     9     8    1
    12     8     1    1
    13     1     2    1
    14     1    20    1
    15    20    21    1
    16    21    22    2
    17    22    23    1
    18    23    24    2
    19    24    25    1
    20    25    26    1
    21    25    27    2
    22    27    28    1
    23    28    29    1
    24    29    30    2
    25     1     4    1
    26     4     5    1
    27     4     6    1
    28     4     7    1
    29    19    13   ar
    30    30    21    1
    31    29    23    1
    32     2     3    1
    33    26    31    1
    34    26    32    1
@<TRIPOS>MOLECULE
*****
 32 34 0 0 0
SMALL
GASTEIGER

@<TRIPOS>ATOM
      1 C          61.2654   89.7199   11.0874 C.3     1  UNL1        0.1812
      2 O          62.5923   89.1254   10.7188 O.3     1  UNL1       -0.3784
      3 H          62.5078   88.1613   10.6535 H       1  UNL1        0.2106
      4 C          59.9385   90.3143   11.4561 C.3     1  UNL1        0.4197
      5 F          58.6115   90.9087   11.8247 F       1  UNL1       -0.1676
      6 F          59.8139   90.8913   10.0770 F       1  UNL1       -0.1676
      7 F          60.0631   89.7373   12.8350 F       1  UNL1       -0.1676
      8 C          60.6576   88.3487   11.1106 C.3     1  UNL1        0.0398
      9 C          60.9110   87.3968    9.9794 C.3     1  UNL1        0.0212
     10 C          61.1756   86.2968   10.9643 C.3     1  UNL1        0.0044
     11 C          60.6465   88.4968    8.9945 C.3     1  UNL1        0.0044
     12 C          58.7490   86.8384    7.9758 C.3     1  UNL1        0.0307
     13 C          60.0835   86.1657    7.8464 C.ar    1  UNL1       -0.0257
     14 C          60.3369   85.2138    6.7152 C.ar    1  UNL1       -0.0023
     15 C          61.6713   84.5411    6.5857 C.ar    1  UNL1        0.0293
     16 C          62.7524   84.8203    7.5875 C.ar    1  UNL1        0.1398
     17 F          64.0868   84.1476    7.4580 F       1  UNL1       -0.2042
     18 C          62.4990   85.7722    8.7187 C.ar    1  UNL1        0.0250
     19 C          61.1645   86.4449    8.8481 C.ar    1  UNL1       -0.0244
     20 C          61.8732   91.0910   11.0643 C.3     1  UNL1        0.0811
     21 C          63.2154   91.3270   11.6910 C.2     1  UNL1        0.0614
     22 C          63.6030   90.9863   13.0995 C.2     1  UNL1        0.0163
     23 C          65.0328   91.3939   13.2983 C.2     1  UNL1        0.0264
     24 C          65.9472   91.3020   14.4839 C.2     1  UNL1        0.0900
     25 C          67.3576   91.8027   14.3838 C.2     1  UNL1        0.3136
     26 N          68.2720   91.7109   15.5694 N.pl3   1  UNL1       -0.2465
     27 N          67.8537   92.3953   13.0983 N.2     1  UNL1       -0.0588
     28 C          66.9394   92.4872   11.9127 C.3     1  UNL1        0.3085
     29 C          65.5290   91.9865   12.0127 C.2     1  UNL1        0.1121
     30 N          64.4057   91.9451   11.0193 N.2     1  UNL1       -0.2495
     31 H          67.9464   91.3219   16.4132 H       1  UNL1        0.2884
     32 H          69.1977   92.0395   15.5037 H       1  UNL1        0.2884
@<TRIPOS>BOND
     1    12    13    1
     2    13    14   ar
     3    14    15   ar
     4    15    16   ar
     5    16    17    1
     6    16    18   ar
     7    18    19   ar
     8    19     9    1
     9     9    10    1
    10     9    11    1
    11     9     8    1
    12     8     1    1
    13     1     2    1
    14     1    20    1
    15    20    21    1
    16    21    22    2
    17    22    23    1
    18    23    24    2
    19    24    25    1
    20    25    26    1
    21    25    27    2
    22    27    28    1
    23    28    29    1
    24    29    30    2
    25     1     4    1
    26     4     5    1
    27     4     6    1
    28     4     7    1
    29    19    13   ar
    30    30    21    1
    31    29    23    1
    32     2     3    1
    33    26    31    1
    34    26    32    1
