@<TRIPOS>MOLECULE
*****
 45 48 0 0 0
SMALL
GASTEIGER

@<TRIPOS>ATOM
      1 C          60.8068   88.2706   10.1124 C.3     1  UNL1        0.1054
      2 C          59.8732   87.9896    8.9724 C.3     1  UNL1        0.1689
      3 S          59.9903   86.7053    8.2064 S.O2    1  UNL1       -0.0085
      4 O          59.7085   85.6411    7.1876 O.2     1  UNL1       -0.1729
      5 O          58.8418   87.3389    7.4786 O.2     1  UNL1       -0.1729
      6 C          61.0409   85.7021    8.5803 C.3     1  UNL1        0.1536
      7 C          61.9744   85.9831    9.7202 C.3     1  UNL1        0.0562
      8 C          61.8573   87.2674   10.4863 C.3     1  UNL1        0.1285
      9 O          62.7909   87.5485   11.6263 O.3     1  UNL1       -0.3830
     10 H          62.5811   88.4143   12.0100 H       1  UNL1        0.2104
     11 N          60.6898   89.5550   10.8785 N.3     1  UNL1       -0.2915
     12 H          60.8354   90.3111   10.2096 H       1  UNL1        0.1236
     13 C          61.6019   89.8218   12.0390 C.3     1  UNL1        0.0957
     14 C          67.0954   92.2483   14.8691 C.3     1  UNL1        0.0342
     15 C          66.1448   92.0436   13.7269 C.3     1  UNL1        0.1118
     16 C          65.3664   91.2385   14.7248 C.3     1  UNL1        0.0342
     17 O          67.1220   92.8915   12.9678 O.3     1  UNL1       -0.3497
     18 C          66.6126   93.0425   11.5650 C.3     1  UNL1        0.1686
     19 C          65.3207   92.2880   11.4572 C.ar    1  UNL1        0.0055
     20 C          64.3702   92.0833   10.3150 C.ar    1  UNL1       -0.0024
     21 C          63.1306   91.2613   10.5089 C.ar    1  UNL1       -0.0032
     22 C          62.8415   90.6439   11.8451 C.ar    1  UNL1       -0.0066
     23 C          63.7920   90.8485   12.9873 C.ar    1  UNL1       -0.0052
     24 C          65.0316   91.6706   12.7933 C.ar    1  UNL1        0.0001
     25 C          63.0250   84.9799   10.0941 C.3     1  UNL1        0.0307
     26 C          62.8192   84.0851   11.2803 C.ar    1  UNL1       -0.0167
     27 C          62.9327   82.5973   11.1261 C.ar    1  UNL1        0.0268
     28 C          62.7269   81.7025   12.3123 C.ar    1  UNL1        0.1556
     29 F          62.8404   80.2148   12.1581 F       1  UNL1       -0.2028
     30 C          62.4077   82.2955   13.6526 C.ar    1  UNL1        0.1037
     31 N          62.2020   81.4007   14.8388 N.pl3   1  UNL1       -0.3529
     32 C          62.2942   83.7832   13.8068 C.ar    1  UNL1        0.1538
     33 C          62.5000   84.6780   12.6206 C.ar    1  UNL1        0.0341
     34 H          62.2764   80.4243   14.7376 H       1  UNL1        0.1425
     35 H          61.9925   81.7899   15.7185 H       1  UNL1        0.1425
     36 O          61.9750   84.3761   15.1471 O.3     1  UNL1       -0.4621
     37 C          63.0022   85.1986   15.8673 C.3     1  UNL1        0.3551
     38 C          62.6512   85.8725   17.1605 C.3     1  UNL1        0.4428
     39 F          62.3001   86.5465   18.4538 F       1  UNL1       -0.1661
     40 F          64.0950   85.8459   17.5664 F       1  UNL1       -0.1661
     41 F          61.2073   85.8992   16.7547 F       1  UNL1       -0.1661
     42 C          64.3804   85.3470   15.2942 C.3     1  UNL1        0.4428
     43 F          65.7586   85.4954   14.7211 F       1  UNL1       -0.1661
     44 F          64.1023   86.7912   14.9995 F       1  UNL1       -0.1661
     45 F          64.6585   83.9028   15.5889 F       1  UNL1       -0.1661
@<TRIPOS>BOND
     1    14    15    1
     2    15    16    1
     3    15    17    1
     4    17    18    1
     5    18    19    1
     6    19    20   ar
     7    20    21   ar
     8    21    22   ar
     9    22    13    1
    10    13    11    1
    11     1    11    1
    12     1     2    1
    13     2     3    1
    14     3     4    2
    15     3     5    2
    16     3     6    1
    17     6     7    1
    18     7    25    1
    19    25    26    1
    20    26    27   ar
    21    27    28   ar
    22    28    29    1
    23    28    30   ar
    24    30    31    1
    25    30    32   ar
    26    32    36    1
    27    36    37    1
    28    37    38    1
    29    38    39    1
    30    38    40    1
    31    38    41    1
    32    37    42    1
    33    42    43    1
    34    42    44    1
    35    42    45    1
    36    32    33   ar
    37     7     8    1
    38     8     9    1
    39    22    23   ar
    40    23    24   ar
    41    24    15    1
    42    24    19   ar
    43     8     1    1
    44    33    26   ar
    45    11    12    1
    46    31    34    1
    47    31    35    1
    48     9    10    1
@<TRIPOS>MOLECULE
*****
 45 48 0 0 0
SMALL
GASTEIGER

@<TRIPOS>ATOM
      1 C          60.8213   88.2777   10.0759 C.3     1  UNL1        0.1054
      2 C          59.8807   87.9967    8.9418 C.3     1  UNL1        0.1689
      3 S          59.9892   86.7098    8.1788 S.O2    1  UNL1       -0.0085
      4 O          59.6983   85.6437    7.1646 O.2     1  UNL1       -0.1729
      5 O          58.8392   87.3453    7.4554 O.2     1  UNL1       -0.1729
      6 C          61.0383   85.7040    8.5501 C.3     1  UNL1        0.1536
      7 C          61.9788   85.9850    9.6842 C.3     1  UNL1        0.0562
      8 C          61.8703   87.2719   10.4472 C.3     1  UNL1        0.1285
      9 O          62.8109   87.5530   11.5814 O.3     1  UNL1       -0.3830
     10 H          62.6061   88.4206   11.9638 H       1  UNL1        0.2104
     11 N          60.7128   89.5647   10.8390 N.3     1  UNL1       -0.2915
     12 H          60.8772   90.3178   10.1710 H       1  UNL1        0.1236
     13 C          61.6142   89.8204   12.0103 C.3     1  UNL1        0.0957
     14 C          67.0439   92.2808   14.9327 C.3     1  UNL1        0.0342
     15 C          66.1144   92.0698   13.7744 C.3     1  UNL1        0.1118
     16 C          65.3236   91.2608   14.7594 C.3     1  UNL1        0.0342
     17 O          67.0995   92.9228   13.0316 O.3     1  UNL1       -0.3497
     18 C          66.6134   93.0699   11.6201 C.3     1  UNL1        0.1686
     19 C          65.3280   92.3078   11.4907 C.ar    1  UNL1        0.0055
     20 C          64.3985   92.0968   10.3325 C.ar    1  UNL1       -0.0024
     21 C          63.1606   91.2677   10.5057 C.ar    1  UNL1       -0.0032
     22 C          62.8522   90.6495   11.8371 C.ar    1  UNL1       -0.0066
     23 C          63.7816   90.8605   12.9954 C.ar    1  UNL1       -0.0052
     24 C          65.0195   91.6896   12.8221 C.ar    1  UNL1        0.0001
     25 C          63.0278   84.9792   10.0554 C.3     1  UNL1        0.0307
     26 C          62.8263   84.0901   11.2466 C.ar    1  UNL1       -0.0167
     27 C          62.9485   82.6021   11.1011 C.ar    1  UNL1        0.0268
     28 C          62.7469   81.7130   12.2922 C.ar    1  UNL1        0.1556
     29 F          62.8691   80.2251   12.1466 F       1  UNL1       -0.2028
     30 C          62.4231   82.3118   13.6288 C.ar    1  UNL1        0.1037
     31 N          62.2215   81.4227   14.8200 N.pl3   1  UNL1       -0.3529
     32 C          62.3009   83.7997   13.7744 C.ar    1  UNL1        0.1538
     33 C          62.5025   84.6889   12.5832 C.ar    1  UNL1        0.0341
     34 H          62.3017   80.4461   14.7245 H       1  UNL1        0.1425
     35 H          62.0090   81.8157   15.6972 H       1  UNL1        0.1425
     36 O          61.9771   84.3984   15.1110 O.3     1  UNL1       -0.4621
     37 C          63.0143   85.1930   15.8480 C.3     1  UNL1        0.3551
     38 C          64.3979   85.3260   15.2840 C.3     1  UNL1        0.4428
     39 F          65.7814   85.4589   14.7200 F       1  UNL1       -0.1661
     40 F          64.1262   86.7644   14.9567 F       1  UNL1       -0.1661
     41 F          64.6695   83.8875   15.6112 F       1  UNL1       -0.1661
     42 C          62.6679   85.8545   17.1488 C.3     1  UNL1        0.4428
     43 F          62.3215   86.5161   18.4497 F       1  UNL1       -0.1661
     44 F          64.1177   85.8571   17.5336 F       1  UNL1       -0.1661
     45 F          61.2181   85.8520   16.7641 F       1  UNL1       -0.1661
@<TRIPOS>BOND
     1    14    15    1
     2    15    16    1
     3    15    17    1
     4    17    18    1
     5    18    19    1
     6    19    20   ar
     7    20    21   ar
     8    21    22   ar
     9    22    13    1
    10    13    11    1
    11     1    11    1
    12     1     2    1
    13     2     3    1
    14     3     4    2
    15     3     5    2
    16     3     6    1
    17     6     7    1
    18     7    25    1
    19    25    26    1
    20    26    27   ar
    21    27    28   ar
    22    28    29    1
    23    28    30   ar
    24    30    31    1
    25    30    32   ar
    26    32    36    1
    27    36    37    1
    28    37    38    1
    29    38    39    1
    30    38    40    1
    31    38    41    1
    32    37    42    1
    33    42    43    1
    34    42    44    1
    35    42    45    1
    36    32    33   ar
    37     7     8    1
    38     8     9    1
    39    22    23   ar
    40    23    24   ar
    41    24    15    1
    42    24    19   ar
    43     8     1    1
    44    33    26   ar
    45    11    12    1
    46    31    34    1
    47    31    35    1
    48     9    10    1
@<TRIPOS>MOLECULE
*****
 45 48 0 0 0
SMALL
GASTEIGER

@<TRIPOS>ATOM
      1 C          61.0652   88.5753   10.1080 C.3     1  UNL1        0.1054
      2 C          59.9757   88.3933    9.0933 C.3     1  UNL1        0.1689
      3 S          59.8598   87.1008    8.3410 S.O2    1  UNL1       -0.0085
      4 O          59.3436   86.0695    7.3818 O.2     1  UNL1       -0.1729
      5 O          58.7068   87.8530    7.7454 O.2     1  UNL1       -0.1729
      6 C          60.8335   85.9903    8.6034 C.3     1  UNL1        0.1536
      7 C          61.9231   86.1724    9.6181 C.3     1  UNL1        0.0562
      8 C          62.0389   87.4649   10.3704 C.3     1  UNL1        0.1285
      9 O          63.1285   87.6470   11.3852 O.3     1  UNL1       -0.3830
     10 H          63.0614   88.5320   11.7764 H       1  UNL1        0.2104
     11 N          61.1811   89.8678   10.8604 N.3     1  UNL1       -0.2915
     12 H          61.9078   90.4138   10.3975 H       1  UNL1        0.1236
     13 C          61.5132   89.8570   12.3231 C.3     1  UNL1        0.0957
     14 C          66.8141   93.5594   10.8167 C.3     1  UNL1        0.0342
     15 C          65.9939   92.6815   11.7149 C.3     1  UNL1        0.1118
     16 C          65.0348   92.6656   10.5616 C.3     1  UNL1        0.0342
     17 O          67.1244   92.8809   12.6803 O.3     1  UNL1       -0.3497
     18 C          66.8024   92.1229   13.9340 C.3     1  UNL1        0.1686
     19 C          65.4729   91.4551   13.7434 C.ar    1  UNL1        0.0055
     20 C          64.6527   90.5772   14.6415 C.ar    1  UNL1       -0.0024
     21 C          63.3328   90.0445   14.1681 C.ar    1  UNL1       -0.0032
     22 C          62.8331   90.3897   12.7965 C.ar    1  UNL1       -0.0066
     23 C          63.6533   91.2676   11.8984 C.ar    1  UNL1       -0.0052
     24 C          64.9732   91.8003   12.3719 C.ar    1  UNL1        0.0001
     25 C          62.8968   85.0619    9.8805 C.3     1  UNL1        0.0307
     26 C          62.7414   84.2004   11.0985 C.ar    1  UNL1       -0.0167
     27 C          62.9120   82.7139   10.9925 C.ar    1  UNL1        0.0268
     28 C          62.7567   81.8524   12.2105 C.ar    1  UNL1        0.1556
     29 F          62.9273   80.3659   12.1044 F       1  UNL1       -0.2028
     30 C          62.4307   82.4773   13.5346 C.ar    1  UNL1        0.1037
     31 N          62.2753   81.6158   14.7526 N.pl3   1  UNL1       -0.3529
     32 C          62.2600   83.9637   13.6406 C.ar    1  UNL1        0.1538
     33 C          62.4154   84.8254   12.4226 C.ar    1  UNL1        0.0341
     34 H          62.3873   80.6401   14.6830 H       1  UNL1        0.1425
     35 H          62.0613   82.0259   15.6216 H       1  UNL1        0.1425
     36 O          61.9340   84.5887   14.9647 O.3     1  UNL1       -0.4621
     37 C          63.0126   85.2580   15.7640 C.3     1  UNL1        0.3551
     38 C          62.6924   85.8585   17.1007 C.3     1  UNL1        0.4428
     39 F          62.3721   86.4590   18.4375 F       1  UNL1       -0.1661
     40 F          64.1461   85.8166   17.4678 F       1  UNL1       -0.1661
     41 F          61.2386   85.9004   16.7337 F       1  UNL1       -0.1661
     42 C          64.4113   85.3269   15.2265 C.3     1  UNL1        0.4428
     43 F          65.8099   85.3957   14.6891 F       1  UNL1       -0.1661
     44 F          64.6312   83.8950   15.6154 F       1  UNL1       -0.1661
     45 F          64.1914   86.7587   14.8377 F       1  UNL1       -0.1661
@<TRIPOS>BOND
     1    14    15    1
     2    15    16    1
     3    15    17    1
     4    17    18    1
     5    18    19    1
     6    19    20   ar
     7    20    21   ar
     8    21    22   ar
     9    22    13    1
    10    13    11    1
    11     1    11    1
    12     1     2    1
    13     2     3    1
    14     3     4    2
    15     3     5    2
    16     3     6    1
    17     6     7    1
    18     7    25    1
    19    25    26    1
    20    26    27   ar
    21    27    28   ar
    22    28    29    1
    23    28    30   ar
    24    30    31    1
    25    30    32   ar
    26    32    36    1
    27    36    37    1
    28    37    38    1
    29    38    39    1
    30    38    40    1
    31    38    41    1
    32    37    42    1
    33    42    43    1
    34    42    44    1
    35    42    45    1
    36    32    33   ar
    37     7     8    1
    38     8     9    1
    39    22    23   ar
    40    23    24   ar
    41    24    15    1
    42    24    19   ar
    43     8     1    1
    44    33    26   ar
    45    11    12    1
    46    31    34    1
    47    31    35    1
    48     9    10    1
@<TRIPOS>MOLECULE
*****
 45 48 0 0 0
SMALL
GASTEIGER

@<TRIPOS>ATOM
      1 C          62.7768   83.0888   13.9502 C.3     1  UNL1        0.1054
      2 C          62.5780   81.6096   13.8013 C.3     1  UNL1        0.1689
      3 S          62.7612   80.9593   12.4621 S.O2    1  UNL1       -0.0085
      4 O          62.8186   79.8924   11.4093 O.2     1  UNL1       -0.1729
      5 O          62.3991   79.7597   13.2868 O.2     1  UNL1       -0.1729
      6 C          63.1432   81.7882   11.2718 C.3     1  UNL1        0.1536
      7 C          63.3420   83.2675   11.4207 C.3     1  UNL1        0.0562
      8 C          63.1589   83.9178   12.7598 C.3     1  UNL1        0.1285
      9 O          63.3577   85.3971   12.9087 O.3     1  UNL1       -0.3830
     10 H          63.2016   85.6531   13.8312 H       1  UNL1        0.2104
     11 N          62.5936   83.7392   15.2894 N.3     1  UNL1       -0.2915
     12 H          61.8067   84.3820   15.1994 H       1  UNL1        0.1236
     13 C          63.7189   84.5160   15.9061 C.3     1  UNL1        0.0957
     14 C          64.3199   90.7224   13.6267 C.3     1  UNL1        0.0342
     15 C          63.9735   89.6941   14.6624 C.3     1  UNL1        0.1118
     16 C          64.4080   88.7170   13.6106 C.3     1  UNL1        0.0342
     17 O          63.6113   90.8862   15.4977 O.3     1  UNL1       -0.3497
     18 C          63.1320   90.3903   16.8298 C.3     1  UNL1        0.1686
     19 C          63.1978   88.8918   16.8177 C.ar    1  UNL1        0.0055
     20 C          62.8514   87.8636   17.8534 C.ar    1  UNL1       -0.0024
     21 C          63.0251   86.4050   17.5495 C.ar    1  UNL1       -0.0032
     22 C          63.5452   85.9747   16.2100 C.ar    1  UNL1       -0.0066
     23 C          63.8916   87.0029   15.1743 C.ar    1  UNL1       -0.0052
     24 C          63.7179   88.4615   15.4782 C.ar    1  UNL1        0.0001
     25 C          63.7241   84.0964   10.2303 C.3     1  UNL1        0.0307
     26 C          62.6636   84.7913    9.4288 C.ar    1  UNL1       -0.0167
     27 C          62.5245   84.5068    7.9626 C.ar    1  UNL1        0.0268
     28 C          61.4640   85.2017    7.1611 C.ar    1  UNL1        0.1556
     29 F          61.3249   84.9171    5.6949 F       1  UNL1       -0.2028
     30 C          60.5427   86.1812    7.8257 C.ar    1  UNL1        0.1037
     31 N          59.4822   86.8761    7.0242 N.pl3   1  UNL1       -0.3529
     32 C          60.6818   86.4658    9.2918 C.ar    1  UNL1        0.1538
     33 C          61.7423   85.7708   10.0934 C.ar    1  UNL1        0.0341
     34 H          59.3909   86.6893    6.0619 H       1  UNL1        0.1425
     35 H          58.8775   87.5190    7.4604 H       1  UNL1        0.1425
     36 O          59.7605   87.4453    9.9564 O.3     1  UNL1       -0.4621
     37 C          60.3003   88.7386   10.4914 C.3     1  UNL1        0.3551
     38 C          59.4471   89.5986   11.3760 C.3     1  UNL1        0.4428
     39 F          58.5940   90.4586   12.2606 F       1  UNL1       -0.1661
     40 F          59.0223   88.3841   12.1470 F       1  UNL1       -0.1661
     41 F          59.8720   90.8131   10.6049 F       1  UNL1       -0.1661
     42 C          61.6931   89.1718   10.1417 C.3     1  UNL1        0.4428
     43 F          63.0859   89.6050    9.7920 F       1  UNL1       -0.1661
     44 F          62.1515   88.8140   11.5244 F       1  UNL1       -0.1661
     45 F          61.2347   89.5296    8.7590 F       1  UNL1       -0.1661
@<TRIPOS>BOND
     1    14    15    1
     2    15    16    1
     3    15    17    1
     4    17    18    1
     5    18    19    1
     6    19    20   ar
     7    20    21   ar
     8    21    22   ar
     9    22    13    1
    10    13    11    1
    11     1    11    1
    12     1     2    1
    13     2     3    1
    14     3     4    2
    15     3     5    2
    16     3     6    1
    17     6     7    1
    18     7    25    1
    19    25    26    1
    20    26    27   ar
    21    27    28   ar
    22    28    29    1
    23    28    30   ar
    24    30    31    1
    25    30    32   ar
    26    32    36    1
    27    36    37    1
    28    37    38    1
    29    38    39    1
    30    38    40    1
    31    38    41    1
    32    37    42    1
    33    42    43    1
    34    42    44    1
    35    42    45    1
    36    32    33   ar
    37     7     8    1
    38     8     9    1
    39    22    23   ar
    40    23    24   ar
    41    24    15    1
    42    24    19   ar
    43     8     1    1
    44    33    26   ar
    45    11    12    1
    46    31    34    1
    47    31    35    1
    48     9    10    1
@<TRIPOS>MOLECULE
*****
 45 48 0 0 0
SMALL
GASTEIGER

@<TRIPOS>ATOM
      1 C          60.7233   88.9335    9.2898 C.3     1  UNL1        0.1054
      2 C          61.2930   89.7413   10.4180 C.3     1  UNL1        0.1689
      3 S          62.2616   89.1131   11.3757 S.O2    1  UNL1       -0.0085
      4 O          63.2055   88.9659   12.5321 O.2     1  UNL1       -0.1729
      5 O          62.1905   90.4978   11.9480 O.2     1  UNL1       -0.1729
      6 C          62.6605   87.6772   11.2052 C.3     1  UNL1        0.1536
      7 C          62.0908   86.8695   10.0769 C.3     1  UNL1        0.0562
      8 C          61.1222   87.4976    9.1192 C.3     1  UNL1        0.1285
      9 O          60.5525   86.6899    7.9909 O.3     1  UNL1       -0.3830
     10 H          59.9483   87.2423    7.4706 H       1  UNL1        0.2104
     11 N          59.7546   89.5617    8.3320 N.3     1  UNL1       -0.2915
     12 H          58.8189   89.3481    8.6772 H       1  UNL1        0.1236
     13 C          59.7790   89.1792    6.8819 C.3     1  UNL1        0.0957
     14 C          63.2009   92.4804    2.2484 C.3     1  UNL1        0.0342
     15 C          61.9687   92.1588    3.0412 C.3     1  UNL1        0.1118
     16 C          62.8561   91.1559    3.7169 C.3     1  UNL1        0.0342
     17 O          61.3390   93.2290    2.1997 O.3     1  UNL1       -0.3497
     18 C          59.9031   93.3591    2.6136 C.3     1  UNL1        0.1686
     19 C          59.6455   92.3694    3.7109 C.ar    1  UNL1        0.0055
     20 C          58.4133   92.0478    4.5036 C.ar    1  UNL1       -0.0024
     21 C          58.4579   90.9844    5.5606 C.ar    1  UNL1       -0.0032
     22 C          59.7346   90.2426    5.8248 C.ar    1  UNL1       -0.0066
     23 C          60.9667   90.5642    5.0321 C.ar    1  UNL1       -0.0052
     24 C          60.9221   91.6275    3.9752 C.ar    1  UNL1        0.0001
     25 C          62.4897   85.4336    9.9063 C.3     1  UNL1        0.0307
     26 C          62.5036   84.5133   11.0907 C.ar    1  UNL1       -0.0167
     27 C          62.8026   83.0552   10.9041 C.ar    1  UNL1        0.0268
     28 C          62.8165   82.1349   12.0885 C.ar    1  UNL1        0.1556
     29 F          63.1154   80.6769   11.9018 F       1  UNL1       -0.2028
     30 C          62.5313   82.6725   13.4595 C.ar    1  UNL1        0.1037
     31 N          62.5452   81.7522   14.6438 N.pl3   1  UNL1       -0.3529
     32 C          62.2323   84.1305   13.6461 C.ar    1  UNL1        0.1538
     33 C          62.2185   85.0509   12.4617 C.ar    1  UNL1        0.0341
     34 H          62.7414   80.7953   14.5213 H       1  UNL1        0.1425
     35 H          62.3581   82.1051   15.5437 H       1  UNL1        0.1425
     36 O          61.9472   84.6681   15.0171 O.3     1  UNL1       -0.4621
     37 C          63.0393   85.3276   15.8062 C.3     1  UNL1        0.3551
     38 C          64.4337   85.3826   15.2561 C.3     1  UNL1        0.4428
     39 F          65.8281   85.4376   14.7060 F       1  UNL1       -0.1661
     40 F          64.6507   83.9554   15.6634 F       1  UNL1       -0.1661
     41 F          64.2167   86.8099   14.8488 F       1  UNL1       -0.1661
     42 C          62.7369   85.9321   17.1452 C.3     1  UNL1        0.4428
     43 F          62.4346   86.5366   18.4843 F       1  UNL1       -0.1661
     44 F          64.1997   85.9283   17.4773 F       1  UNL1       -0.1661
     45 F          61.2742   85.9360   16.8132 F       1  UNL1       -0.1661
@<TRIPOS>BOND
     1    14    15    1
     2    15    16    1
     3    15    17    1
     4    17    18    1
     5    18    19    1
     6    19    20   ar
     7    20    21   ar
     8    21    22   ar
     9    22    13    1
    10    13    11    1
    11     1    11    1
    12     1     2    1
    13     2     3    1
    14     3     4    2
    15     3     5    2
    16     3     6    1
    17     6     7    1
    18     7    25    1
    19    25    26    1
    20    26    27   ar
    21    27    28   ar
    22    28    29    1
    23    28    30   ar
    24    30    31    1
    25    30    32   ar
    26    32    36    1
    27    36    37    1
    28    37    38    1
    29    38    39    1
    30    38    40    1
    31    38    41    1
    32    37    42    1
    33    42    43    1
    34    42    44    1
    35    42    45    1
    36    32    33   ar
    37     7     8    1
    38     8     9    1
    39    22    23   ar
    40    23    24   ar
    41    24    15    1
    42    24    19   ar
    43     8     1    1
    44    33    26   ar
    45    11    12    1
    46    31    34    1
    47    31    35    1
    48     9    10    1
@<TRIPOS>MOLECULE
*****
 45 48 0 0 0
SMALL
GASTEIGER

@<TRIPOS>ATOM
      1 C          63.0524   87.7098   12.1382 C.3     1  UNL1        0.1054
      2 C          62.1980   88.1763   10.9971 C.3     1  UNL1        0.1689
      3 S          61.8264   89.6250   10.8818 S.O2    1  UNL1       -0.0085
      4 O          61.2132   90.8845   10.3456 O.2     1  UNL1       -0.1729
      5 O          61.1306   89.0804    9.6697 O.2     1  UNL1       -0.1729
      6 C          62.3093   90.6070   11.9077 C.3     1  UNL1        0.1536
      7 C          63.1637   90.1405   13.0488 C.3     1  UNL1        0.0562
      8 C          63.5353   88.6918   13.1641 C.3     1  UNL1        0.1285
      9 O          64.3897   88.2252   14.3053 O.3     1  UNL1       -0.3830
     10 H          64.5347   87.2690   14.2307 H       1  UNL1        0.2104
     11 N          63.4240   86.2610   12.2535 N.3     1  UNL1       -0.2915
     12 H          62.8722   85.7592   11.5578 H       1  UNL1        0.1236
     13 C          63.2378   85.5404   13.5558 C.3     1  UNL1        0.0957
     14 C          63.1764   79.9123   10.0348 C.3     1  UNL1        0.0342
     15 C          62.9571   80.7307   11.2726 C.3     1  UNL1        0.1118
     16 C          63.4587   81.8613   10.4240 C.3     1  UNL1        0.0342
     17 O          62.5013   79.4291   11.8625 O.3     1  UNL1       -0.3497
     18 C          62.1051   79.6795   13.2874 C.3     1  UNL1        0.1686
     19 C          62.3161   81.1358   13.5782 C.ar    1  UNL1        0.0055
     20 C          62.0968   81.9542   14.8159 C.ar    1  UNL1       -0.0024
     21 C          62.4040   83.4224   14.8084 C.ar    1  UNL1       -0.0032
     22 C          62.9305   84.0721   13.5632 C.ar    1  UNL1       -0.0066
     23 C          63.1499   83.2537   12.3255 C.ar    1  UNL1       -0.0052
     24 C          62.8426   81.7856   12.3330 C.ar    1  UNL1        0.0001
     25 C          63.6466   91.1225   14.0747 C.3     1  UNL1        0.0307
     26 C          65.1005   91.4857   14.1393 C.ar    1  UNL1       -0.0167
     27 C          65.7546   91.7286   15.4672 C.ar    1  UNL1        0.0268
     28 C          67.2085   92.0918   15.5318 C.ar    1  UNL1        0.1556
     29 F          67.8625   92.3347   16.8597 F       1  UNL1       -0.2028
     30 C          68.0083   92.2121   14.2686 C.ar    1  UNL1        0.1037
     31 N          69.4622   92.5753   14.3332 N.pl3   1  UNL1       -0.3529
     32 C          67.3543   91.9692   12.9407 C.ar    1  UNL1        0.1538
     33 C          65.9003   91.6060   12.8761 C.ar    1  UNL1        0.0341
     34 H          69.8915   92.7347   15.2047 H       1  UNL1        0.1425
     35 H          69.9872   92.6543   13.5041 H       1  UNL1        0.1425
     36 O          68.1542   92.0895   11.6775 O.3     1  UNL1       -0.4621
     37 C          67.5841   92.8156   10.4951 C.3     1  UNL1        0.3551
     38 C          68.2316   92.6809    9.1488 C.3     1  UNL1        0.4428
     39 F          68.8790   92.5461    7.8024 F       1  UNL1       -0.1661
     40 F          68.1380   91.1874    9.2532 F       1  UNL1       -0.1661
     41 F          68.3251   94.1743    9.0443 F       1  UNL1       -0.1661
     42 C          66.3666   93.6763   10.6591 C.3     1  UNL1        0.4428
     43 F          65.1492   94.5369   10.8231 F       1  UNL1       -0.1661
     44 F          67.1966   94.7192   11.3470 F       1  UNL1       -0.1661
     45 F          65.5367   92.6333    9.9712 F       1  UNL1       -0.1661
@<TRIPOS>BOND
     1    14    15    1
     2    15    16    1
     3    15    17    1
     4    17    18    1
     5    18    19    1
     6    19    20   ar
     7    20    21   ar
     8    21    22   ar
     9    22    13    1
    10    13    11    1
    11     1    11    1
    12     1     2    1
    13     2     3    1
    14     3     4    2
    15     3     5    2
    16     3     6    1
    17     6     7    1
    18     7    25    1
    19    25    26    1
    20    26    27   ar
    21    27    28   ar
    22    28    29    1
    23    28    30   ar
    24    30    31    1
    25    30    32   ar
    26    32    36    1
    27    36    37    1
    28    37    38    1
    29    38    39    1
    30    38    40    1
    31    38    41    1
    32    37    42    1
    33    42    43    1
    34    42    44    1
    35    42    45    1
    36    32    33   ar
    37     7     8    1
    38     8     9    1
    39    22    23   ar
    40    23    24   ar
    41    24    15    1
    42    24    19   ar
    43     8     1    1
    44    33    26   ar
    45    11    12    1
    46    31    34    1
    47    31    35    1
    48     9    10    1
@<TRIPOS>MOLECULE
*****
 45 48 0 0 0
SMALL
GASTEIGER

@<TRIPOS>ATOM
      1 C          60.7845   87.6764   10.3117 C.3     1  UNL1        0.1054
      2 C          59.6087   88.1171   11.1322 C.3     1  UNL1        0.1689
      3 S          59.5296   89.5294   11.6312 S.O2    1  UNL1       -0.0085
      4 O          59.0065   90.7518   12.3256 O.2     1  UNL1       -0.1729
      5 O          58.2512   88.9824   12.1938 O.2     1  UNL1       -0.1729
      6 C          60.6262   90.5010   11.3098 C.3     1  UNL1        0.1536
      7 C          61.8021   90.0603   10.4893 C.3     1  UNL1        0.0562
      8 C          61.8812   88.6480    9.9903 C.3     1  UNL1        0.1285
      9 O          63.0570   88.2072    9.1698 O.3     1  UNL1       -0.3830
     10 H          62.9523   87.2731    8.9304 H       1  UNL1        0.2104
     11 N          60.8637   86.2640    9.8126 N.3     1  UNL1       -0.2915
     12 H          60.1692   85.7284   10.3333 H       1  UNL1        0.1236
     13 C          62.1548   85.5064    9.9072 C.3     1  UNL1        0.0957
     14 C          63.1507   80.1973   13.7670 C.3     1  UNL1        0.0342
     15 C          63.1801   81.6652   13.4594 C.3     1  UNL1        0.1118
     16 C          62.6066   81.2400   12.1402 C.3     1  UNL1        0.0342
     17 O          63.7474   81.7835   14.8429 O.3     1  UNL1       -0.3497
     18 C          64.0075   83.2356   15.1145 C.3     1  UNL1        0.1686
     19 C          63.6009   84.0147   13.8989 C.ar    1  UNL1        0.0055
     20 C          63.6303   85.4825   13.5913 C.ar    1  UNL1       -0.0024
     21 C          63.1482   85.9797   12.2608 C.ar    1  UNL1       -0.0032
     22 C          62.6369   85.0091   11.2378 C.ar    1  UNL1       -0.0066
     23 C          62.6075   83.5413   11.5454 C.ar    1  UNL1       -0.0052
     24 C          63.0895   83.0441   12.8760 C.ar    1  UNL1        0.0001
     25 C          62.8987   91.0319   10.1679 C.3     1  UNL1        0.0307
     26 C          63.9274   91.3719   11.2053 C.ar    1  UNL1       -0.0167
     27 C          63.8339   90.7748   12.5782 C.ar    1  UNL1        0.0268
     28 C          64.8626   91.1148   13.6156 C.ar    1  UNL1        0.1556
     29 F          64.7690   90.5176   14.9884 F       1  UNL1       -0.2028
     30 C          65.9847   92.0519   13.2801 C.ar    1  UNL1        0.1037
     31 N          67.0134   92.3919   14.3175 N.pl3   1  UNL1       -0.3529
     32 C          66.0783   92.6490   11.9073 C.ar    1  UNL1        0.1538
     33 C          65.0496   92.3090   10.8698 C.ar    1  UNL1        0.0341
     34 H          66.9520   92.0000   15.2186 H       1  UNL1        0.1425
     35 H          67.7499   93.0069   14.0973 H       1  UNL1        0.1425
     36 O          67.2005   93.5861   11.5719 O.3     1  UNL1       -0.4621
     37 C          67.3207   94.1464   10.1856 C.3     1  UNL1        0.3551
     38 C          66.7510   95.4979    9.8709 C.3     1  UNL1        0.4428
     39 F          66.1813   96.8493    9.5562 F       1  UNL1       -0.1661
     40 F          68.1312   96.0146    9.5915 F       1  UNL1       -0.1661
     41 F          65.3708   94.9811   10.1503 F       1  UNL1       -0.1661
     42 C          68.0106   93.3553    9.1142 C.3     1  UNL1        0.4428
     43 F          68.7005   92.5642    8.0427 F       1  UNL1       -0.1661
     44 F          68.6807   92.5186   10.1634 F       1  UNL1       -0.1661
     45 F          67.3406   94.1920    8.0649 F       1  UNL1       -0.1661
@<TRIPOS>BOND
     1    14    15    1
     2    15    16    1
     3    15    17    1
     4    17    18    1
     5    18    19    1
     6    19    20   ar
     7    20    21   ar
     8    21    22   ar
     9    22    13    1
    10    13    11    1
    11     1    11    1
    12     1     2    1
    13     2     3    1
    14     3     4    2
    15     3     5    2
    16     3     6    1
    17     6     7    1
    18     7    25    1
    19    25    26    1
    20    26    27   ar
    21    27    28   ar
    22    28    29    1
    23    28    30   ar
    24    30    31    1
    25    30    32   ar
    26    32    36    1
    27    36    37    1
    28    37    38    1
    29    38    39    1
    30    38    40    1
    31    38    41    1
    32    37    42    1
    33    42    43    1
    34    42    44    1
    35    42    45    1
    36    32    33   ar
    37     7     8    1
    38     8     9    1
    39    22    23   ar
    40    23    24   ar
    41    24    15    1
    42    24    19   ar
    43     8     1    1
    44    33    26   ar
    45    11    12    1
    46    31    34    1
    47    31    35    1
    48     9    10    1
@<TRIPOS>MOLECULE
*****
 45 48 0 0 0
SMALL
GASTEIGER

@<TRIPOS>ATOM
      1 C          62.0042   86.9724   10.2938 C.3     1  UNL1        0.1054
      2 C          61.0742   86.9665    9.1169 C.3     1  UNL1        0.1689
      3 S          60.4109   88.2385    8.6787 S.O2    1  UNL1       -0.0085
      4 O          59.5514   89.1803    7.8887 O.2     1  UNL1       -0.1729
      5 O          59.8457   87.2877    7.6656 O.2     1  UNL1       -0.1729
      6 C          60.6776   89.5164    9.4174 C.3     1  UNL1        0.1536
      7 C          61.6076   89.5224   10.5943 C.3     1  UNL1        0.0562
      8 C          62.2709   88.2504   11.0325 C.3     1  UNL1        0.1285
      9 O          63.2009   88.2563   12.2094 O.3     1  UNL1       -0.3830
     10 H          63.5409   87.3600   12.3573 H       1  UNL1        0.2104
     11 N          62.6675   85.7004   10.7320 N.3     1  UNL1       -0.2915
     12 H          62.1528   84.9348   10.2967 H       1  UNL1        0.1236
     13 C          62.7747   85.3750   12.1923 C.3     1  UNL1        0.0957
     14 C          62.9226   78.9776   10.4238 C.3     1  UNL1        0.0342
     15 C          62.7728   80.1020   11.4053 C.3     1  UNL1        0.1118
     16 C          63.0181   80.9711   10.2076 C.3     1  UNL1        0.0342
     17 O          62.5589   78.9978   12.3978 O.3     1  UNL1       -0.3497
     18 C          62.3282   79.6215   13.7424 C.3     1  UNL1        0.1686
     19 C          62.3995   81.1110   13.5809 C.ar    1  UNL1        0.0055
     20 C          62.2498   82.2353   14.5624 C.ar    1  UNL1       -0.0024
     21 C          62.3748   83.6566   14.0996 C.ar    1  UNL1       -0.0032
     22 C          62.6496   83.9536   12.6552 C.ar    1  UNL1       -0.0066
     23 C          62.7994   82.8293   11.6736 C.ar    1  UNL1       -0.0052
     24 C          62.6743   81.4080   12.1365 C.ar    1  UNL1        0.0001
     25 C          61.8743   90.8004   11.3330 C.3     1  UNL1        0.0307
     26 C          63.2791   91.3080   11.4706 C.ar    1  UNL1       -0.0167
     27 C          63.8873   92.1372   10.3786 C.ar    1  UNL1        0.0268
     28 C          65.2921   92.6448   10.5162 C.ar    1  UNL1        0.1556
     29 F          65.9002   93.4740    9.4242 F       1  UNL1       -0.2028
     30 C          66.0886   92.3232   11.7459 C.ar    1  UNL1        0.1037
     31 N          67.4934   92.8308   11.8835 N.pl3   1  UNL1       -0.3529
     32 C          65.4805   91.4940   12.8379 C.ar    1  UNL1        0.1538
     33 C          64.0756   90.9864   12.7003 C.ar    1  UNL1        0.0341
     34 H          67.8926   93.3750   11.1668 H       1  UNL1        0.1425
     35 H          68.0162   92.6197   12.6906 H       1  UNL1        0.1425
     36 O          66.2770   91.1724   14.0675 O.3     1  UNL1       -0.4621
     37 C          66.0643   91.9602   15.3262 C.3     1  UNL1        0.3551
     38 C          67.0644   92.9994   15.7386 C.3     1  UNL1        0.4428
     39 F          68.0644   94.0385   16.1510 F       1  UNL1       -0.1661
     40 F          66.5104   93.9405   14.7104 F       1  UNL1       -0.1661
     41 F          67.6184   92.0582   16.7669 F       1  UNL1       -0.1661
     42 C          64.8517   91.7088   16.1725 C.3     1  UNL1        0.4428
     43 F          63.6390   91.4574   17.0187 F       1  UNL1       -0.1661
     44 F          64.6666   90.3753   15.5111 F       1  UNL1       -0.1661
     45 F          65.0367   93.0423   16.8338 F       1  UNL1       -0.1661
@<TRIPOS>BOND
     1    14    15    1
     2    15    16    1
     3    15    17    1
     4    17    18    1
     5    18    19    1
     6    19    20   ar
     7    20    21   ar
     8    21    22   ar
     9    22    13    1
    10    13    11    1
    11     1    11    1
    12     1     2    1
    13     2     3    1
    14     3     4    2
    15     3     5    2
    16     3     6    1
    17     6     7    1
    18     7    25    1
    19    25    26    1
    20    26    27   ar
    21    27    28   ar
    22    28    29    1
    23    28    30   ar
    24    30    31    1
    25    30    32   ar
    26    32    36    1
    27    36    37    1
    28    37    38    1
    29    38    39    1
    30    38    40    1
    31    38    41    1
    32    37    42    1
    33    42    43    1
    34    42    44    1
    35    42    45    1
    36    32    33   ar
    37     7     8    1
    38     8     9    1
    39    22    23   ar
    40    23    24   ar
    41    24    15    1
    42    24    19   ar
    43     8     1    1
    44    33    26   ar
    45    11    12    1
    46    31    34    1
    47    31    35    1
    48     9    10    1
