@<TRIPOS>MOLECULE
*****
 45 48 0 0 0
SMALL
GASTEIGER

@<TRIPOS>ATOM
      1 C          65.4404   91.0596   14.4256 C.3     1  UNL1        0.0503
      2 C          64.8680   91.0297   13.4945 C.ar    1  UNL1        0.0465
      3 C          63.8709   89.9097   13.4551 C.ar    1  UNL1        0.0682
      4 C          63.0001   89.7229   12.2482 C.ar    1  UNL1        0.2653
      5 O          62.0030   88.6029   12.2089 O.2     1  UNL1       -0.2668
      6 N          63.1263   90.6559   11.0806 N.ar    1  UNL1       -0.2470
      7 C          64.1234   91.7759   11.1199 C.ar    1  UNL1        0.3338
      8 O          64.2497   92.7090    9.9522 O.2     1  UNL1       -0.2462
      9 N          64.9942   91.9627   12.3268 N.ar    1  UNL1       -0.2806
     10 C          63.7447   88.9766   14.6228 C.ar    1  UNL1        0.0087
     11 C          63.1899   89.4747   15.9244 C.ar    1  UNL1        0.0004
     12 C          63.0637   88.5416   17.0920 C.ar    1  UNL1        0.0031
     13 C          63.4922   87.1103   16.9581 C.ar    1  UNL1        0.0369
     14 C          64.0470   86.6123   15.6564 C.ar    1  UNL1        0.1386
     15 C          64.1732   87.5454   14.4889 C.ar    1  UNL1        0.0371
     16 O          64.4755   85.1810   15.5225 O.3     1  UNL1       -0.4755
     17 C          64.5546   84.5457   14.1659 C.3     1  UNL1        0.2058
     18 C          63.3461   83.8793   13.5782 C.3     1  UNL1        0.0532
     19 C          62.4065   83.1148   14.4629 C.3     1  UNL1        0.0455
     20 C          62.2586   81.6315   14.2956 C.2     1  UNL1        0.0505
     21 O          60.8920   81.0184   14.2155 O.co2   1  UNL1       -0.5492
     22 O          63.4773   80.7614   14.2083 O.co2   1  UNL1       -0.5492
     23 C          62.2555   90.4691    9.8736 C.3     1  UNL1        0.1334
     24 C          60.9619   89.7189    9.9910 C.3     1  UNL1        0.0968
     25 N          59.8638   90.2495   10.8644 N.3     1  UNL1       -0.3172
     26 H          59.0637   89.6180   10.8260 H       1  UNL1        0.1192
     27 H          59.5839   91.1734   10.5352 H       1  UNL1        0.1192
     28 C          60.7663   88.4382    9.2350 C.ar    1  UNL1       -0.0063
     29 C          61.8168   87.3687    9.2869 C.ar    1  UNL1       -0.0029
     30 C          61.6212   86.0880    8.5309 C.ar    1  UNL1       -0.0003
     31 C          60.3751   85.8768    7.7230 C.ar    1  UNL1       -0.0000
     32 C          59.3247   86.9463    7.6711 C.ar    1  UNL1       -0.0003
     33 C          59.5203   88.2270    8.4271 C.ar    1  UNL1       -0.0029
     34 C          65.9913   93.0828   12.3661 C.3     1  UNL1        0.1391
     35 C          66.8124   93.3988   11.1513 C.ar    1  UNL1        0.0319
     36 C          67.7244   92.3588   10.5711 C.ar    1  UNL1        0.1379
     37 F          67.8791   91.3405   10.9382 F       1  UNL1       -0.2044
     38 C          68.5456   92.6748    9.3562 C.ar    1  UNL1        0.0294
     39 C          68.4546   94.0310    8.7215 C.ar    1  UNL1        0.0022
     40 C          67.5426   95.0709    9.3017 C.ar    1  UNL1        0.0037
     41 C          66.7215   94.7549   10.5166 C.ar    1  UNL1        0.0714
     42 C          65.8095   95.7949   11.0968 C.3     1  UNL1        0.4184
     43 F          64.8975   96.8349   11.6770 F       1  UNL1       -0.1659
     44 F          64.8820   95.6331    9.9291 F       1  UNL1       -0.1659
     45 F          66.7370   95.9568   12.2645 F       1  UNL1       -0.1659
@<TRIPOS>UNITY_ATOM_ATTR
21 1
charge -1
@<TRIPOS>BOND
     1     1     2    1
     2     2     3   ar
     3     3    10    1
     4    10    11   ar
     5    11    12   ar
     6    12    13   ar
     7    13    14   ar
     8    14    16    1
     9    16    17    1
    10    17    18    1
    11    18    19    1
    12    19    20    1
    13    20    21   ar
    14    20    22   ar
    15    14    15   ar
    16     3     4   ar
    17     4     5    2
    18     4     6   ar
    19     6    23    1
    20    23    24    1
    21    24    25    1
    22    24    28    1
    23    28    29   ar
    24    29    30   ar
    25    30    31   ar
    26    31    32   ar
    27    32    33   ar
    28     6     7   ar
    29     7     8    2
    30     7     9   ar
    31     9    34    1
    32    34    35    1
    33    35    36   ar
    34    36    37    1
    35    36    38   ar
    36    38    39   ar
    37    39    40   ar
    38    40    41   ar
    39    41    42    1
    40    42    43    1
    41    42    44    1
    42    42    45    1
    43     9     2   ar
    44    41    35   ar
    45    15    10   ar
    46    33    28   ar
    47    25    26    1
    48    25    27    1
@<TRIPOS>MOLECULE
*****
 45 48 0 0 0
SMALL
GASTEIGER

@<TRIPOS>ATOM
      1 C          65.0019   87.0085   14.5238 C.3     1  UNL1        0.0503
      2 C          64.1807   86.9461   13.8045 C.ar    1  UNL1        0.0465
      3 C          63.5114   88.2665   13.5630 C.ar    1  UNL1        0.0682
      4 C          62.3630   88.3608   12.6027 C.ar    1  UNL1        0.2653
      5 O          61.6937   89.6814   12.3612 O.2     1  UNL1       -0.2668
      6 N          61.8837   87.1345   11.8839 N.ar    1  UNL1       -0.2470
      7 C          62.5530   85.8141   12.1255 C.ar    1  UNL1        0.3338
      8 O          62.0738   84.5877   11.4067 O.2     1  UNL1       -0.2462
      9 N          63.7015   85.7198   13.0858 N.ar    1  UNL1       -0.2806
     10 C          63.9906   89.4929   14.2817 C.ar    1  UNL1        0.0087
     11 C          63.4262   89.8425   15.6268 C.ar    1  UNL1        0.0004
     12 C          63.9054   91.0688   16.3455 C.ar    1  UNL1        0.0031
     13 C          64.9490   91.9455   15.7192 C.ar    1  UNL1        0.0369
     14 C          65.5134   91.5958   14.3741 C.ar    1  UNL1        0.1386
     15 C          65.0342   90.3696   13.6554 C.ar    1  UNL1        0.0371
     16 O          66.5571   92.4725   13.7477 O.3     1  UNL1       -0.4755
     17 C          66.1813   93.4116   12.6400 C.3     1  UNL1        0.2058
     18 C          66.1395   92.9214   11.2230 C.3     1  UNL1        0.0532
     19 C          67.3560   92.2930   10.6106 C.3     1  UNL1        0.0455
     20 C          68.0986   93.0045    9.5186 C.2     1  UNL1        0.0505
     21 O          68.6191   92.2350    8.3410 O.co2   1  UNL1       -0.5492
     22 O          68.3207   94.4854    9.6043 O.co2   1  UNL1       -0.5492
     23 C          60.7353   87.2288   10.9237 C.3     1  UNL1        0.1334
     24 C          60.9836   87.5994    9.4915 C.3     1  UNL1        0.0968
     25 N          60.8966   89.0340    9.0621 N.3     1  UNL1       -0.3172
     26 H          61.0928   89.1025    8.0635 H       1  UNL1        0.1192
     27 H          61.5789   89.5863    9.5814 H       1  UNL1        0.1192
     28 C          61.3189   86.5354    8.4888 C.ar    1  UNL1       -0.0063
     29 C          62.7040   85.9616    8.4388 C.ar    1  UNL1       -0.0029
     30 C          63.0393   84.8977    7.4361 C.ar    1  UNL1       -0.0003
     31 C          61.9895   84.4074    6.4833 C.ar    1  UNL1       -0.0000
     32 C          60.6045   84.9811    6.5333 C.ar    1  UNL1       -0.0003
     33 C          60.2692   86.0451    7.5361 C.ar    1  UNL1       -0.0029
     34 C          64.3707   84.3993   13.3273 C.3     1  UNL1        0.1391
     35 C          63.5548   83.1412   13.3675 C.ar    1  UNL1        0.0319
     36 C          63.7064   82.1141   12.2848 C.ar    1  UNL1        0.1379
     37 F          64.3723   82.1639   11.4190 F       1  UNL1       -0.2044
     38 C          62.8905   80.8560   12.3250 C.ar    1  UNL1        0.0294
     39 C          61.9230   80.6251   13.4478 C.ar    1  UNL1        0.0022
     40 C          61.7714   81.6522   14.5304 C.ar    1  UNL1        0.0037
     41 C          62.5873   82.9103   14.4902 C.ar    1  UNL1        0.0714
     42 C          62.4357   83.9374   15.5729 C.3     1  UNL1        0.4184
     43 F          62.2842   84.9645   16.6555 F       1  UNL1       -0.1659
     44 F          61.1807   84.4385   14.9218 F       1  UNL1       -0.1659
     45 F          63.6907   83.4364   16.2239 F       1  UNL1       -0.1659
@<TRIPOS>UNITY_ATOM_ATTR
21 1
charge -1
@<TRIPOS>BOND
     1     1     2    1
     2     2     3   ar
     3     3    10    1
     4    10    11   ar
     5    11    12   ar
     6    12    13   ar
     7    13    14   ar
     8    14    16    1
     9    16    17    1
    10    17    18    1
    11    18    19    1
    12    19    20    1
    13    20    21   ar
    14    20    22   ar
    15    14    15   ar
    16     3     4   ar
    17     4     5    2
    18     4     6   ar
    19     6    23    1
    20    23    24    1
    21    24    25    1
    22    24    28    1
    23    28    29   ar
    24    29    30   ar
    25    30    31   ar
    26    31    32   ar
    27    32    33   ar
    28     6     7   ar
    29     7     8    2
    30     7     9   ar
    31     9    34    1
    32    34    35    1
    33    35    36   ar
    34    36    37    1
    35    36    38   ar
    36    38    39   ar
    37    39    40   ar
    38    40    41   ar
    39    41    42    1
    40    42    43    1
    41    42    44    1
    42    42    45    1
    43     9     2   ar
    44    41    35   ar
    45    15    10   ar
    46    33    28   ar
    47    25    26    1
    48    25    27    1
@<TRIPOS>MOLECULE
*****
 45 48 0 0 0
SMALL
GASTEIGER

@<TRIPOS>ATOM
      1 C          62.1278   88.9251   10.3050 C.3     1  UNL1        0.0503
      2 C          62.5235   88.3329   11.1346 C.ar    1  UNL1        0.0465
      3 C          62.5676   86.8634   10.8369 C.ar    1  UNL1        0.0682
      4 C          63.0842   85.9044   11.8682 C.ar    1  UNL1        0.2653
      5 O          63.1283   84.4349   11.5704 O.2     1  UNL1       -0.2668
      6 N          63.5567   86.4149   13.1971 N.ar    1  UNL1       -0.2470
      7 C          63.5127   87.8843   13.4948 C.ar    1  UNL1        0.3338
      8 O          63.9852   88.3949   14.8238 O.2     1  UNL1       -0.2462
      9 N          62.9961   88.8433   12.4635 N.ar    1  UNL1       -0.2806
     10 C          62.0951   86.3529    9.5079 C.ar    1  UNL1        0.0087
     11 C          62.9341   85.3764    8.7382 C.ar    1  UNL1        0.0004
     12 C          62.4616   84.8659    7.4092 C.ar    1  UNL1        0.0031
     13 C          61.1500   85.3318    6.8500 C.ar    1  UNL1        0.0369
     14 C          60.3109   86.3083    7.6199 C.ar    1  UNL1        0.1386
     15 C          60.7835   86.8188    8.9488 C.ar    1  UNL1        0.0371
     16 O          58.9993   86.7742    7.0607 O.3     1  UNL1       -0.4755
     17 C          58.5234   88.1712    7.3292 C.3     1  UNL1        0.2058
     18 C          59.4266   89.3369    7.0547 C.3     1  UNL1        0.0532
     19 C          59.4509   89.9622    5.6915 C.3     1  UNL1        0.0455
     20 C          58.5169   91.0902    5.3669 C.2     1  UNL1        0.0505
     21 O          59.0626   92.3982    4.8760 O.co2   1  UNL1       -0.5492
     22 O          57.0371   90.9101    5.5334 O.co2   1  UNL1       -0.5492
     23 C          64.0734   85.4559   14.2283 C.3     1  UNL1        0.1334
     24 C          63.1218   84.5546   14.9578 C.3     1  UNL1        0.0968
     25 N          62.3758   85.0634   16.1556 N.3     1  UNL1       -0.3172
     26 H          61.7784   84.3231   16.5238 H       1  UNL1        0.1192
     27 H          61.8009   85.8611   15.8845 H       1  UNL1        0.1192
     28 C          62.9161   83.1445   14.4895 C.ar    1  UNL1       -0.0063
     29 C          61.5575   82.5151   14.5791 C.ar    1  UNL1       -0.0029
     30 C          61.3518   81.1050   14.1108 C.ar    1  UNL1       -0.0003
     31 C          62.5048   80.3243   13.5528 C.ar    1  UNL1       -0.0000
     32 C          63.8633   80.9537   13.4632 C.ar    1  UNL1       -0.0003
     33 C          64.0690   82.3638   13.9315 C.ar    1  UNL1       -0.0029
     34 C          62.9520   90.3129   12.7613 C.3     1  UNL1        0.1391
     35 C          64.0992   91.1935   12.3631 C.ar    1  UNL1        0.0319
     36 C          64.2598   91.6150   10.9325 C.ar    1  UNL1        0.1379
     37 F          63.6131   91.3496   10.0917 F       1  UNL1       -0.2044
     38 C          65.4070   92.4956   10.5343 C.ar    1  UNL1        0.0294
     39 C          66.3935   92.9547   11.5668 C.ar    1  UNL1        0.0022
     40 C          66.2329   92.5332   12.9974 C.ar    1  UNL1        0.0037
     41 C          65.0857   91.6526   13.3955 C.ar    1  UNL1        0.0714
     42 C          64.9251   91.2312   14.8262 C.3     1  UNL1        0.4184
     43 F          64.7646   90.8097   16.2567 F       1  UNL1       -0.1659
     44 F          63.4833   91.6426   14.7856 F       1  UNL1       -0.1659
     45 F          66.3670   90.8197   14.8668 F       1  UNL1       -0.1659
@<TRIPOS>UNITY_ATOM_ATTR
21 1
charge -1
@<TRIPOS>BOND
     1     1     2    1
     2     2     3   ar
     3     3    10    1
     4    10    11   ar
     5    11    12   ar
     6    12    13   ar
     7    13    14   ar
     8    14    16    1
     9    16    17    1
    10    17    18    1
    11    18    19    1
    12    19    20    1
    13    20    21   ar
    14    20    22   ar
    15    14    15   ar
    16     3     4   ar
    17     4     5    2
    18     4     6   ar
    19     6    23    1
    20    23    24    1
    21    24    25    1
    22    24    28    1
    23    28    29   ar
    24    29    30   ar
    25    30    31   ar
    26    31    32   ar
    27    32    33   ar
    28     6     7   ar
    29     7     8    2
    30     7     9   ar
    31     9    34    1
    32    34    35    1
    33    35    36   ar
    34    36    37    1
    35    36    38   ar
    36    38    39   ar
    37    39    40   ar
    38    40    41   ar
    39    41    42    1
    40    42    43    1
    41    42    44    1
    42    42    45    1
    43     9     2   ar
    44    41    35   ar
    45    15    10   ar
    46    33    28   ar
    47    25    26    1
    48    25    27    1
@<TRIPOS>MOLECULE
*****
 45 48 0 0 0
SMALL
GASTEIGER

@<TRIPOS>ATOM
      1 C          64.9873   90.3661   15.1689 C.3     1  UNL1        0.0503
      2 C          64.5977   90.3752   14.1472 C.ar    1  UNL1        0.0465
      3 C          63.8713   89.1137   13.7856 C.ar    1  UNL1        0.0682
      4 C          63.2723   88.9585   12.4191 C.ar    1  UNL1        0.2653
      5 O          62.5458   87.6969   12.0576 O.2     1  UNL1       -0.2668
      6 N          63.3998   90.0648   11.4143 N.ar    1  UNL1       -0.2470
      7 C          64.1263   91.3263   11.7759 C.ar    1  UNL1        0.3338
      8 O          64.2538   92.4327   10.7710 O.2     1  UNL1       -0.2462
      9 N          64.7252   91.4815   13.1423 N.ar    1  UNL1       -0.2806
     10 C          63.7437   88.0073   14.7905 C.ar    1  UNL1        0.0087
     11 C          63.1426   88.2827   16.1369 C.ar    1  UNL1        0.0004
     12 C          63.0150   87.1763   17.1417 C.ar    1  UNL1        0.0031
     13 C          63.4886   85.7946   16.8001 C.ar    1  UNL1        0.0369
     14 C          64.0898   85.5193   15.4537 C.ar    1  UNL1        0.1386
     15 C          64.2173   86.6257   14.4489 C.ar    1  UNL1        0.0371
     16 O          64.5634   84.1376   15.1121 O.3     1  UNL1       -0.4755
     17 C          64.4102   83.6166   13.7138 C.3     1  UNL1        0.2058
     18 C          63.0413   83.3963   13.1414 C.3     1  UNL1        0.0532
     19 C          62.2662   82.1643   13.5036 C.3     1  UNL1        0.0455
     20 C          62.8763   80.8086   13.3039 C.2     1  UNL1        0.0505
     21 O          63.6788   80.1780   14.4031 O.co2   1  UNL1       -0.5492
     22 O          62.6839   80.0835   12.0050 O.co2   1  UNL1       -0.5492
     23 C          62.8009   89.9096   10.0478 C.3     1  UNL1        0.1334
     24 C          61.3234   89.7004    9.8959 C.3     1  UNL1        0.0968
     25 N          60.3612   90.6813   10.4978 N.3     1  UNL1       -0.3172
     26 H          59.4054   90.3857   10.2989 H       1  UNL1        0.1192
     27 H          60.5218   91.6051   10.0963 H       1  UNL1        0.1192
     28 C          60.8079   88.5104    9.1422 C.ar    1  UNL1       -0.0063
     29 C          61.4781   87.1772    9.2963 C.ar    1  UNL1       -0.0029
     30 C          60.9626   85.9871    8.5426 C.ar    1  UNL1       -0.0003
     31 C          59.7771   86.1303    7.6347 C.ar    1  UNL1       -0.0000
     32 C          59.1071   87.4634    7.4807 C.ar    1  UNL1       -0.0003
     33 C          59.6225   88.6534    8.2344 C.ar    1  UNL1       -0.0029
     34 C          65.4517   92.7431   13.5039 C.3     1  UNL1        0.1391
     35 C          66.7786   92.6714   14.1997 C.ar    1  UNL1        0.0319
     36 C          66.8609   92.8873   15.6819 C.ar    1  UNL1        0.1379
     37 F          66.0327   93.1028   16.3625 F       1  UNL1       -0.2044
     38 C          68.1878   92.8155   16.3777 C.ar    1  UNL1        0.0294
     39 C          69.4324   92.5278   15.5914 C.ar    1  UNL1        0.0022
     40 C          69.3501   92.3119   14.1094 C.ar    1  UNL1        0.0037
     41 C          68.0232   92.3837   13.4135 C.ar    1  UNL1        0.0714
     42 C          67.9410   92.1677   11.9314 C.3     1  UNL1        0.4184
     43 F          67.8587   91.9519   10.4493 F       1  UNL1       -0.1659
     44 F          68.7868   90.9361   12.0638 F       1  UNL1       -0.1659
     45 F          67.0951   93.3994   11.7989 F       1  UNL1       -0.1659
@<TRIPOS>UNITY_ATOM_ATTR
21 1
charge -1
@<TRIPOS>BOND
     1     1     2    1
     2     2     3   ar
     3     3    10    1
     4    10    11   ar
     5    11    12   ar
     6    12    13   ar
     7    13    14   ar
     8    14    16    1
     9    16    17    1
    10    17    18    1
    11    18    19    1
    12    19    20    1
    13    20    21   ar
    14    20    22   ar
    15    14    15   ar
    16     3     4   ar
    17     4     5    2
    18     4     6   ar
    19     6    23    1
    20    23    24    1
    21    24    25    1
    22    24    28    1
    23    28    29   ar
    24    29    30   ar
    25    30    31   ar
    26    31    32   ar
    27    32    33   ar
    28     6     7   ar
    29     7     8    2
    30     7     9   ar
    31     9    34    1
    32    34    35    1
    33    35    36   ar
    34    36    37    1
    35    36    38   ar
    36    38    39   ar
    37    39    40   ar
    38    40    41   ar
    39    41    42    1
    40    42    43    1
    41    42    44    1
    42    42    45    1
    43     9     2   ar
    44    41    35   ar
    45    15    10   ar
    46    33    28   ar
    47    25    26    1
    48    25    27    1
@<TRIPOS>MOLECULE
*****
 45 48 0 0 0
SMALL
GASTEIGER

@<TRIPOS>ATOM
      1 C          62.7098   88.0689   12.3025 C.3     1  UNL1        0.0503
      2 C          63.2403   89.0233   12.3596 C.ar    1  UNL1        0.0465
      3 C          63.8905   89.2536   13.6916 C.ar    1  UNL1        0.0682
      4 C          64.6613   90.5159   13.9417 C.ar    1  UNL1        0.2653
      5 O          65.3114   90.7462   15.2738 O.2     1  UNL1       -0.2668
      6 N          64.7819   91.5479   12.8599 N.ar    1  UNL1       -0.2470
      7 C          64.1317   91.3176   11.5279 C.ar    1  UNL1        0.3338
      8 O          64.2523   92.3496   10.4460 O.2     1  UNL1       -0.2462
      9 N          63.3609   90.0553   11.2778 N.ar    1  UNL1       -0.2806
     10 C          63.7699   88.2217   14.7736 C.ar    1  UNL1        0.0087
     11 C          63.1714   88.5906   16.0986 C.ar    1  UNL1        0.0004
     12 C          63.0508   87.5586   17.1805 C.ar    1  UNL1        0.0031
     13 C          63.5287   86.1577   16.9374 C.ar    1  UNL1        0.0369
     14 C          64.1272   85.7888   15.6123 C.ar    1  UNL1        0.1386
     15 C          64.2478   86.8208   14.5304 C.ar    1  UNL1        0.0371
     16 O          64.6052   84.3879   15.3691 O.3     1  UNL1       -0.4755
     17 C          63.6536   83.3500   14.8518 C.3     1  UNL1        0.2058
     18 C          62.7771   83.6568   13.6739 C.3     1  UNL1        0.0532
     19 C          63.3887   83.8866   12.3236 C.3     1  UNL1        0.0455
     20 C          63.7372   82.7186   11.4494 C.2     1  UNL1        0.0505
     21 O          64.8504   82.8349   10.4509 O.co2   1  UNL1       -0.5492
     22 O          62.9724   81.4342   11.5737 O.co2   1  UNL1       -0.5492
     23 C          65.5527   92.8102   13.1100 C.3     1  UNL1        0.1334
     24 C          66.9944   92.9010   12.7062 C.3     1  UNL1        0.0968
     25 N          68.0735   92.7181   13.7320 N.3     1  UNL1       -0.3172
     26 H          68.9860   92.8116   13.2859 H       1  UNL1        0.1192
     27 H          67.9924   91.7908   14.1491 H       1  UNL1        0.1192
     28 C          67.3571   93.1749   11.2767 C.ar    1  UNL1       -0.0063
     29 C          66.9530   94.4692   10.6352 C.ar    1  UNL1       -0.0029
     30 C          67.3157   94.7430    9.2057 C.ar    1  UNL1       -0.0003
     31 C          68.0826   93.7226    8.4178 C.ar    1  UNL1       -0.0000
     32 C          68.4867   92.4284    9.0594 C.ar    1  UNL1       -0.0003
     33 C          68.1239   92.1545   10.4889 C.ar    1  UNL1       -0.0029
     34 C          62.7108   89.8250    9.9457 C.3     1  UNL1        0.1391
     35 C          61.8301   88.6287    9.7378 C.ar    1  UNL1        0.0319
     36 C          62.3991   87.3717    9.1493 C.ar    1  UNL1        0.1379
     37 F          63.4319   87.2020    8.8331 F       1  UNL1       -0.2044
     38 C          61.5184   86.1754    8.9414 C.ar    1  UNL1        0.0294
     39 C          60.0687   86.2360    9.3221 C.ar    1  UNL1        0.0022
     40 C          59.4998   87.4930    9.9106 C.ar    1  UNL1        0.0037
     41 C          60.3805   88.6893   10.1185 C.ar    1  UNL1        0.0714
     42 C          59.8115   89.9463   10.7070 C.3     1  UNL1        0.4184
     43 F          59.2425   91.2032   11.2955 F       1  UNL1       -0.1659
     44 F          59.8879   89.3396   12.0767 F       1  UNL1       -0.1659
     45 F          59.7351   90.5529    9.3373 F       1  UNL1       -0.1659
@<TRIPOS>UNITY_ATOM_ATTR
21 1
charge -1
@<TRIPOS>BOND
     1     1     2    1
     2     2     3   ar
     3     3    10    1
     4    10    11   ar
     5    11    12   ar
     6    12    13   ar
     7    13    14   ar
     8    14    16    1
     9    16    17    1
    10    17    18    1
    11    18    19    1
    12    19    20    1
    13    20    21   ar
    14    20    22   ar
    15    14    15   ar
    16     3     4   ar
    17     4     5    2
    18     4     6   ar
    19     6    23    1
    20    23    24    1
    21    24    25    1
    22    24    28    1
    23    28    29   ar
    24    29    30   ar
    25    30    31   ar
    26    31    32   ar
    27    32    33   ar
    28     6     7   ar
    29     7     8    2
    30     7     9   ar
    31     9    34    1
    32    34    35    1
    33    35    36   ar
    34    36    37    1
    35    36    38   ar
    36    38    39   ar
    37    39    40   ar
    38    40    41   ar
    39    41    42    1
    40    42    43    1
    41    42    44    1
    42    42    45    1
    43     9     2   ar
    44    41    35   ar
    45    15    10   ar
    46    33    28   ar
    47    25    26    1
    48    25    27    1
@<TRIPOS>MOLECULE
*****
 45 48 0 0 0
SMALL
GASTEIGER

@<TRIPOS>ATOM
      1 C          62.2509   88.8236   10.6441 C.3     1  UNL1        0.0503
      2 C          62.6260   88.1778   11.4427 C.ar    1  UNL1        0.0465
      3 C          62.6343   86.7257   11.0669 C.ar    1  UNL1        0.0682
      4 C          63.1194   85.6998   12.0478 C.ar    1  UNL1        0.2653
      5 O          63.1276   84.2476   11.6719 O.2     1  UNL1       -0.2668
      6 N          63.5963   86.1260   13.4046 N.ar    1  UNL1       -0.2470
      7 C          63.5880   87.5781   13.7804 C.ar    1  UNL1        0.3338
      8 O          64.0649   88.0044   15.1372 O.2     1  UNL1       -0.2462
      9 N          63.1029   88.6040   12.7995 N.ar    1  UNL1       -0.2806
     10 C          62.1573   86.2994    9.7100 C.ar    1  UNL1        0.0087
     11 C          63.0102   85.4022    8.8630 C.ar    1  UNL1        0.0004
     12 C          62.5333   84.9759    7.5061 C.ar    1  UNL1        0.0031
     13 C          61.2035   85.4469    6.9965 C.ar    1  UNL1        0.0369
     14 C          60.3506   86.3441    7.8436 C.ar    1  UNL1        0.1386
     15 C          60.8275   86.7703    9.2004 C.ar    1  UNL1        0.0371
     16 O          59.0208   86.8150    7.3339 O.3     1  UNL1       -0.4755
     17 C          58.6684   88.2719    7.3921 C.3     1  UNL1        0.2058
     18 C          59.4388   89.2632    6.5711 C.3     1  UNL1        0.0532
     19 C          58.7137   90.3436    5.8250 C.3     1  UNL1        0.0455
     20 C          59.4864   91.3580    5.0350 C.2     1  UNL1        0.0505
     21 O          58.7824   92.5435    4.4445 O.co2   1  UNL1       -0.5492
     22 O          60.9632   91.1867    4.8356 O.co2   1  UNL1       -0.5492
     23 C          64.0814   85.1001   14.3855 C.3     1  UNL1        0.1334
     24 C          63.1007   84.1975   15.0735 C.3     1  UNL1        0.0968
     25 N          62.3872   84.6664   16.3069 N.3     1  UNL1       -0.3172
     26 H          61.7635   83.9309   16.6392 H       1  UNL1        0.1192
     27 H          61.8428   85.5008   16.0883 H       1  UNL1        0.1192
     28 C          62.8333   82.8260   14.5281 C.ar    1  UNL1       -0.0063
     29 C          61.4385   82.2740   14.5373 C.ar    1  UNL1       -0.0029
     30 C          61.1711   80.9025   13.9920 C.ar    1  UNL1       -0.0003
     31 C          62.2985   80.0830   13.4374 C.ar    1  UNL1       -0.0000
     32 C          63.6931   80.6349   13.4282 C.ar    1  UNL1       -0.0003
     33 C          63.9605   82.0065   13.9736 C.ar    1  UNL1       -0.0029
     34 C          63.0947   90.0561   13.1754 C.3     1  UNL1        0.1391
     35 C          64.3772   90.8338   13.1920 C.ar    1  UNL1        0.0319
     36 C          65.2657   90.7895   14.3998 C.ar    1  UNL1        0.1379
     37 F          65.0919   90.2323   15.3245 F       1  UNL1       -0.2044
     38 C          66.5482   91.5671   14.4164 C.ar    1  UNL1        0.0294
     39 C          66.9423   92.3892   13.2252 C.ar    1  UNL1        0.0022
     40 C          66.0539   92.4335   12.0174 C.ar    1  UNL1        0.0037
     41 C          64.7713   91.6558   12.0008 C.ar    1  UNL1        0.0714
     42 C          63.8829   91.7002   10.7930 C.3     1  UNL1        0.4184
     43 F          62.9945   91.7446    9.5853 F       1  UNL1       -0.1659
     44 F          65.0908   91.6825    9.9038 F       1  UNL1       -0.1659
     45 F          62.6750   91.7179   11.6822 F       1  UNL1       -0.1659
@<TRIPOS>UNITY_ATOM_ATTR
21 1
charge -1
@<TRIPOS>BOND
     1     1     2    1
     2     2     3   ar
     3     3    10    1
     4    10    11   ar
     5    11    12   ar
     6    12    13   ar
     7    13    14   ar
     8    14    16    1
     9    16    17    1
    10    17    18    1
    11    18    19    1
    12    19    20    1
    13    20    21   ar
    14    20    22   ar
    15    14    15   ar
    16     3     4   ar
    17     4     5    2
    18     4     6   ar
    19     6    23    1
    20    23    24    1
    21    24    25    1
    22    24    28    1
    23    28    29   ar
    24    29    30   ar
    25    30    31   ar
    26    31    32   ar
    27    32    33   ar
    28     6     7   ar
    29     7     8    2
    30     7     9   ar
    31     9    34    1
    32    34    35    1
    33    35    36   ar
    34    36    37    1
    35    36    38   ar
    36    38    39   ar
    37    39    40   ar
    38    40    41   ar
    39    41    42    1
    40    42    43    1
    41    42    44    1
    42    42    45    1
    43     9     2   ar
    44    41    35   ar
    45    15    10   ar
    46    33    28   ar
    47    25    26    1
    48    25    27    1
@<TRIPOS>MOLECULE
*****
 45 48 0 0 0
SMALL
GASTEIGER

@<TRIPOS>ATOM
      1 C          64.8606   86.8096   15.2550 C.3     1  UNL1        0.0503
      2 C          64.3366   86.7609   14.2965 C.ar    1  UNL1        0.0465
      3 C          63.8451   88.0986   13.8287 C.ar    1  UNL1        0.0682
      4 C          63.1038   88.2130   12.5298 C.ar    1  UNL1        0.2653
      5 O          62.6122   89.5508   12.0620 O.2     1  UNL1       -0.2668
      6 N          62.8539   86.9896   11.6986 N.ar    1  UNL1       -0.2470
      7 C          63.3454   85.6519   12.1663 C.ar    1  UNL1        0.3338
      8 O          63.0956   84.4285   11.3351 O.2     1  UNL1       -0.2462
      9 N          64.0868   85.5376   13.4653 N.ar    1  UNL1       -0.2806
     10 C          64.0949   89.3221   14.6599 C.ar    1  UNL1        0.0087
     11 C          63.3106   89.5466   15.9187 C.ar    1  UNL1        0.0004
     12 C          63.5605   90.7701   16.7499 C.ar    1  UNL1        0.0031
     13 C          64.5946   91.7689   16.3223 C.ar    1  UNL1        0.0369
     14 C          65.3789   91.5444   15.0635 C.ar    1  UNL1        0.1386
     15 C          65.1290   90.3210   14.2323 C.ar    1  UNL1        0.0371
     16 O          66.4130   92.5433   14.6359 O.3     1  UNL1       -0.4755
     17 C          66.9661   92.5003   13.2422 C.3     1  UNL1        0.2058
     18 C          66.2184   93.1541   12.1181 C.3     1  UNL1        0.0532
     19 C          66.6379   92.9133   10.6982 C.3     1  UNL1        0.0455
     20 C          67.2579   94.0224    9.9011 C.2     1  UNL1        0.0505
     21 O          66.4198   95.1824    9.4518 O.co2   1  UNL1       -0.5492
     22 O          68.7161   93.9715    9.5531 O.co2   1  UNL1       -0.5492
     23 C          62.1126   87.1040   10.3996 C.3     1  UNL1        0.1334
     24 C          60.7293   87.6835   10.3740 C.3     1  UNL1        0.0968
     25 N          59.9522   87.8263   11.6491 N.3     1  UNL1       -0.3172
     26 H          59.0397   88.2348   11.4472 H       1  UNL1        0.1192
     27 H          60.4617   88.4329   12.2916 H       1  UNL1        0.1192
     28 C          60.1231   88.1202    9.0733 C.ar    1  UNL1       -0.0063
     29 C          60.3050   89.5311    8.5973 C.ar    1  UNL1       -0.0029
     30 C          59.6988   89.9678    7.2966 C.ar    1  UNL1       -0.0003
     31 C          58.9105   88.9937    6.4720 C.ar    1  UNL1       -0.0000
     32 C          58.7286   87.5830    6.9481 C.ar    1  UNL1       -0.0003
     33 C          59.3349   87.1462    8.2487 C.ar    1  UNL1       -0.0029
     34 C          64.5783   84.1997   13.9331 C.3     1  UNL1        0.1391
     35 C          63.6871   82.9972   13.8352 C.ar    1  UNL1        0.0319
     36 C          64.0540   81.8640   12.9233 C.ar    1  UNL1        0.1379
     37 F          64.9373   81.7945   12.2826 F       1  UNL1       -0.2044
     38 C          63.1628   80.6614   12.8253 C.ar    1  UNL1        0.0294
     39 C          61.9048   80.5920   13.6393 C.ar    1  UNL1        0.0022
     40 C          61.5379   81.7251   14.5512 C.ar    1  UNL1        0.0037
     41 C          62.4291   82.9277   14.6491 C.ar    1  UNL1        0.0714
     42 C          62.0622   84.0608   15.5610 C.3     1  UNL1        0.4184
     43 F          61.6953   85.1938   16.4729 F       1  UNL1       -0.1659
     44 F          61.2442   84.6777   14.4654 F       1  UNL1       -0.1659
     45 F          62.8802   83.4439   16.6565 F       1  UNL1       -0.1659
@<TRIPOS>UNITY_ATOM_ATTR
21 1
charge -1
@<TRIPOS>BOND
     1     1     2    1
     2     2     3   ar
     3     3    10    1
     4    10    11   ar
     5    11    12   ar
     6    12    13   ar
     7    13    14   ar
     8    14    16    1
     9    16    17    1
    10    17    18    1
    11    18    19    1
    12    19    20    1
    13    20    21   ar
    14    20    22   ar
    15    14    15   ar
    16     3     4   ar
    17     4     5    2
    18     4     6   ar
    19     6    23    1
    20    23    24    1
    21    24    25    1
    22    24    28    1
    23    28    29   ar
    24    29    30   ar
    25    30    31   ar
    26    31    32   ar
    27    32    33   ar
    28     6     7   ar
    29     7     8    2
    30     7     9   ar
    31     9    34    1
    32    34    35    1
    33    35    36   ar
    34    36    37    1
    35    36    38   ar
    36    38    39   ar
    37    39    40   ar
    38    40    41   ar
    39    41    42    1
    40    42    43    1
    41    42    44    1
    42    42    45    1
    43     9     2   ar
    44    41    35   ar
    45    15    10   ar
    46    33    28   ar
    47    25    26    1
    48    25    27    1
@<TRIPOS>MOLECULE
*****
 45 48 0 0 0
SMALL
GASTEIGER

@<TRIPOS>ATOM
      1 C          64.7616   87.0126   14.5759 C.3     1  UNL1        0.0503
      2 C          63.9621   86.9929   13.8302 C.ar    1  UNL1        0.0465
      3 C          63.2986   88.3256   13.6470 C.ar    1  UNL1        0.0682
      4 C          62.1789   88.4766   12.6603 C.ar    1  UNL1        0.2653
      5 O          61.5153   89.8093   12.4772 O.2     1  UNL1       -0.2668
      6 N          61.7228   87.2949   11.8569 N.ar    1  UNL1       -0.2470
      7 C          62.3863   85.9623   12.0401 C.ar    1  UNL1        0.3338
      8 O          61.9303   84.7805   11.2366 O.2     1  UNL1       -0.2462
      9 N          63.5060   85.8112   13.0268 N.ar    1  UNL1       -0.2806
     10 C          63.7547   89.5073   14.4505 C.ar    1  UNL1        0.0087
     11 C          63.3338   89.6475   15.8834 C.ar    1  UNL1        0.0004
     12 C          63.7899   90.8293   16.6869 C.ar    1  UNL1        0.0031
     13 C          64.6668   91.8708   16.0574 C.ar    1  UNL1        0.0369
     14 C          65.0877   91.7305   14.6245 C.ar    1  UNL1        0.1386
     15 C          64.6316   90.5488   13.8211 C.ar    1  UNL1        0.0371
     16 O          65.9647   92.7720   13.9950 O.3     1  UNL1       -0.4755
     17 C          66.5640   92.5295   12.6414 C.3     1  UNL1        0.2058
     18 C          66.0755   93.3062   11.4548 C.3     1  UNL1        0.0532
     19 C          66.5954   92.9878   10.0843 C.3     1  UNL1        0.0455
     20 C          67.6650   93.8419    9.4708 C.2     1  UNL1        0.0505
     21 O          69.1105   93.5212    9.7108 O.co2   1  UNL1       -0.5492
     22 O          67.2891   95.0166    8.6172 O.co2   1  UNL1       -0.5492
     23 C          60.6031   87.4459   10.8702 C.3     1  UNL1        0.1334
     24 C          60.9058   87.7520    9.4333 C.3     1  UNL1        0.0968
     25 N          60.8139   89.1626    8.9314 N.3     1  UNL1       -0.3172
     26 H          61.0512   89.1868    7.9397 H       1  UNL1        0.1192
     27 H          61.4647   89.7515    9.4512 H       1  UNL1        0.1192
     28 C          61.3005   86.6475    8.4983 C.ar    1  UNL1       -0.0063
     29 C          62.6945   86.0948    8.5363 C.ar    1  UNL1       -0.0029
     30 C          63.0891   84.9903    7.6013 C.ar    1  UNL1       -0.0003
     31 C          62.0897   84.4385    6.6281 C.ar    1  UNL1       -0.0000
     32 C          60.6958   84.9912    6.5901 C.ar    1  UNL1       -0.0003
     33 C          60.3012   86.0957    7.5252 C.ar    1  UNL1       -0.0029
     34 C          64.1696   84.4785   13.2099 C.3     1  UNL1        0.1391
     35 C          63.3373   83.2360   13.3268 C.ar    1  UNL1        0.0319
     36 C          62.5148   82.9974   14.5583 C.ar    1  UNL1        0.1379
     37 F          62.4369   83.6477   15.4339 F       1  UNL1       -0.2044
     38 C          61.6825   81.7550   14.6752 C.ar    1  UNL1        0.0294
     39 C          61.6727   80.7512   13.5605 C.ar    1  UNL1        0.0022
     40 C          62.4953   80.9898   12.3291 C.ar    1  UNL1        0.0037
     41 C          63.3276   82.2323   12.2123 C.ar    1  UNL1        0.0714
     42 C          64.1501   82.4709   10.9807 C.3     1  UNL1        0.4184
     43 F          64.9726   82.7095    9.7493 F       1  UNL1       -0.1659
     44 F          65.1981   83.1495   11.8121 F       1  UNL1       -0.1659
     45 F          63.1022   81.7923   10.1494 F       1  UNL1       -0.1659
@<TRIPOS>UNITY_ATOM_ATTR
21 1
charge -1
@<TRIPOS>BOND
     1     1     2    1
     2     2     3   ar
     3     3    10    1
     4    10    11   ar
     5    11    12   ar
     6    12    13   ar
     7    13    14   ar
     8    14    16    1
     9    16    17    1
    10    17    18    1
    11    18    19    1
    12    19    20    1
    13    20    21   ar
    14    20    22   ar
    15    14    15   ar
    16     3     4   ar
    17     4     5    2
    18     4     6   ar
    19     6    23    1
    20    23    24    1
    21    24    25    1
    22    24    28    1
    23    28    29   ar
    24    29    30   ar
    25    30    31   ar
    26    31    32   ar
    27    32    33   ar
    28     6     7   ar
    29     7     8    2
    30     7     9   ar
    31     9    34    1
    32    34    35    1
    33    35    36   ar
    34    36    37    1
    35    36    38   ar
    36    38    39   ar
    37    39    40   ar
    38    40    41   ar
    39    41    42    1
    40    42    43    1
    41    42    44    1
    42    42    45    1
    43     9     2   ar
    44    41    35   ar
    45    15    10   ar
    46    33    28   ar
    47    25    26    1
    48    25    27    1
@<TRIPOS>MOLECULE
*****
 45 48 0 0 0
SMALL
GASTEIGER

@<TRIPOS>ATOM
      1 C          62.4923   89.7283   10.3649 C.3     1  UNL1        0.0503
      2 C          62.7403   88.9824   11.1250 C.ar    1  UNL1        0.0465
      3 C          62.1099   87.6468   10.8631 C.ar    1  UNL1        0.0682
      4 C          62.3465   86.5073   11.8094 C.ar    1  UNL1        0.2653
      5 O          61.7160   85.1716   11.5475 O.2     1  UNL1       -0.2668
      6 N          63.2134   86.7034   13.0177 N.ar    1  UNL1       -0.2470
      7 C          63.8438   88.0390   13.2796 C.ar    1  UNL1        0.3338
      8 O          64.7108   88.2352   14.4879 O.2     1  UNL1       -0.2462
      9 N          63.6072   89.1785   12.3333 N.ar    1  UNL1       -0.2806
     10 C          61.2429   87.4506    9.6548 C.ar    1  UNL1        0.0087
     11 C          61.1537   86.1007    9.0069 C.ar    1  UNL1        0.0004
     12 C          60.2867   85.9046    7.7986 C.ar    1  UNL1        0.0031
     13 C          59.5089   87.0583    7.2383 C.ar    1  UNL1        0.0369
     14 C          59.5981   88.4082    7.8863 C.ar    1  UNL1        0.1386
     15 C          60.4651   88.6043    9.0945 C.ar    1  UNL1        0.0371
     16 O          58.8203   89.5620    7.3261 O.3     1  UNL1       -0.4755
     17 C          59.0910   90.0421    5.9310 C.3     1  UNL1        0.2058
     18 C          58.7724   91.4575    5.5499 C.3     1  UNL1        0.0532
     19 C          58.8309   91.8781    4.1113 C.3     1  UNL1        0.0455
     20 C          60.0511   92.5714    3.5816 C.2     1  UNL1        0.0505
     21 O          61.4082   91.9695    3.7960 O.co2   1  UNL1       -0.5492
     22 O          59.9142   93.8665    2.8374 O.co2   1  UNL1       -0.5492
     23 C          63.4500   85.5639   13.9640 C.3     1  UNL1        0.1334
     24 C          64.4387   84.4915   13.6143 C.3     1  UNL1        0.0968
     25 N          65.8071   84.5038   14.2287 N.3     1  UNL1       -0.3172
     26 H          66.3428   83.7081   13.8817 H       1  UNL1        0.1192
     27 H          65.7248   84.4416   15.2435 H       1  UNL1        0.1192
     28 C          64.0592   83.4068   12.6503 C.ar    1  UNL1       -0.0063
     29 C          63.1885   82.2722   13.1028 C.ar    1  UNL1       -0.0029
     30 C          62.8089   81.1875   12.1387 C.ar    1  UNL1       -0.0003
     31 C          63.3000   81.2374   10.7222 C.ar    1  UNL1       -0.0000
     32 C          64.1707   82.3720   10.2698 C.ar    1  UNL1       -0.0003
     33 C          64.5502   83.4567   11.2339 C.ar    1  UNL1       -0.0029
     34 C          64.2376   90.5142   12.5952 C.3     1  UNL1        0.1391
     35 C          64.4025   91.0024   14.0039 C.ar    1  UNL1        0.0319
     36 C          63.3757   90.6584   15.0419 C.ar    1  UNL1        0.1379
     37 F          62.4692   90.0638   14.8992 F       1  UNL1       -0.2044
     38 C          63.5406   91.1466   16.4507 C.ar    1  UNL1        0.0294
     39 C          64.7324   91.9787   16.8214 C.ar    1  UNL1        0.0022
     40 C          65.7591   92.3226   15.7835 C.ar    1  UNL1        0.0037
     41 C          65.5942   91.8344   14.3747 C.ar    1  UNL1        0.0714
     42 C          66.6211   92.1784   13.3368 C.3     1  UNL1        0.4184
     43 F          67.6479   92.5223   12.2988 F       1  UNL1       -0.1659
     44 F          67.5310   91.1200   13.8862 F       1  UNL1       -0.1659
     45 F          65.7112   93.2367   12.7873 F       1  UNL1       -0.1659
@<TRIPOS>UNITY_ATOM_ATTR
21 1
charge -1
@<TRIPOS>BOND
     1     1     2    1
     2     2     3   ar
     3     3    10    1
     4    10    11   ar
     5    11    12   ar
     6    12    13   ar
     7    13    14   ar
     8    14    16    1
     9    16    17    1
    10    17    18    1
    11    18    19    1
    12    19    20    1
    13    20    21   ar
    14    20    22   ar
    15    14    15   ar
    16     3     4   ar
    17     4     5    2
    18     4     6   ar
    19     6    23    1
    20    23    24    1
    21    24    25    1
    22    24    28    1
    23    28    29   ar
    24    29    30   ar
    25    30    31   ar
    26    31    32   ar
    27    32    33   ar
    28     6     7   ar
    29     7     8    2
    30     7     9   ar
    31     9    34    1
    32    34    35    1
    33    35    36   ar
    34    36    37    1
    35    36    38   ar
    36    38    39   ar
    37    39    40   ar
    38    40    41   ar
    39    41    42    1
    40    42    43    1
    41    42    44    1
    42    42    45    1
    43     9     2   ar
    44    41    35   ar
    45    15    10   ar
    46    33    28   ar
    47    25    26    1
    48    25    27    1
