@<TRIPOS>MOLECULE
*****
 20 22 0 0 0
SMALL
GASTEIGER

@<TRIPOS>ATOM
      1 C          62.1859   88.1870   10.7571 C.3     1  UNL1        0.0061
      2 C          62.3439   86.8268   11.3696 C.3     1  UNL1        0.0377
      3 C          61.5572   86.4705   10.1431 C.3     1  UNL1        0.0061
      4 C          62.2286   85.3429   11.5561 C.3     1  UNL1        0.1025
      5 N          62.8452   84.6877   12.7563 N.am    1  UNL1       -0.2534
      6 C          63.5771   85.5164   13.7700 C.2     1  UNL1        0.2525
      7 O          64.1936   84.8612   14.9702 O.2     1  UNL1       -0.2696
      8 C          63.6923   87.0004   13.5835 C.ar    1  UNL1        0.0500
      9 C          64.4242   87.8290   14.5973 C.ar    1  UNL1        0.0051
     10 C          64.5394   89.3129   14.4108 C.ar    1  UNL1        0.0115
     11 C          63.9228   89.9681   13.2105 C.ar    1  UNL1        0.0574
     12 CL         64.0381   91.4520   13.0241 Cl      1  UNL1       -0.0823
     13 C          63.1910   89.1394   12.1968 C.ar    1  UNL1        0.0073
     14 C          63.0758   87.6556   12.3833 C.ar    1  UNL1       -0.0160
     15 C          62.7299   83.2038   12.9427 C.ar    1  UNL1        0.0733
     16 C          63.0401   82.2784   11.8037 C.ar    1  UNL1        0.0181
     17 C          62.9249   80.7946   11.9902 C.ar    1  UNL1        0.0220
     18 C          62.4994   80.2361   13.3158 C.ar    1  UNL1        0.0990
     19 N          62.1892   81.1614   14.4548 N.ar    1  UNL1       -0.2410
     20 C          62.3044   82.6453   14.2683 C.ar    1  UNL1        0.1137
@<TRIPOS>BOND
     1     1     2    1
     2     2     3    1
     3     2     4    1
     4     4     5    1
     5     5    15    1
     6    15    16   ar
     7    16    17   ar
     8    17    18   ar
     9    18    19   ar
    10    19    20   ar
    11     5     6   am
    12     6     7    2
    13     6     8    1
    14     8     9   ar
    15     9    10   ar
    16    10    11   ar
    17    11    12    1
    18    11    13   ar
    19    13    14   ar
    20    14     2    1
    21    20    15   ar
    22    14     8   ar
@<TRIPOS>MOLECULE
*****
 20 22 0 0 0
SMALL
GASTEIGER

@<TRIPOS>ATOM
      1 C          66.1775   92.2613   15.7921 C.3     1  UNL1        0.0061
      2 C          66.2469   92.7960   14.3923 C.3     1  UNL1        0.0377
      3 C          67.2960   93.6447   15.0476 C.3     1  UNL1        0.0061
      4 C          66.6806   93.6254   13.2201 C.3     1  UNL1        0.1025
      5 N          66.0412   93.4205   11.8788 N.am    1  UNL1       -0.2534
      6 C          64.9682   92.3862   11.7096 C.2     1  UNL1        0.2525
      7 O          64.3288   92.1813   10.3683 O.2     1  UNL1       -0.2696
      8 C          64.5344   91.5567   12.8818 C.ar    1  UNL1        0.0500
      9 C          63.4613   90.5225   12.7126 C.ar    1  UNL1        0.0051
     10 C          63.0276   89.6931   13.8848 C.ar    1  UNL1        0.0115
     11 C          63.6670   89.8980   15.2261 C.ar    1  UNL1        0.0574
     12 CL         63.2332   89.0686   16.3983 Cl      1  UNL1       -0.0823
     13 C          64.7401   90.9323   15.3953 C.ar    1  UNL1        0.0073
     14 C          65.1738   91.7617   14.2231 C.ar    1  UNL1       -0.0160
     15 C          66.4750   94.2499   10.7066 C.ar    1  UNL1        0.0733
     16 C          67.3163   93.6386    9.6256 C.ar    1  UNL1        0.0181
     17 C          67.7500   94.4681    8.4535 C.ar    1  UNL1        0.0220
     18 C          67.3424   95.9087    8.3624 C.ar    1  UNL1        0.0990
     19 N          66.5012   96.5200    9.4433 N.ar    1  UNL1       -0.2410
     20 C          66.0675   95.6906   10.6155 C.ar    1  UNL1        0.1137
@<TRIPOS>BOND
     1     1     2    1
     2     2     3    1
     3     2     4    1
     4     4     5    1
     5     5    15    1
     6    15    16   ar
     7    16    17   ar
     8    17    18   ar
     9    18    19   ar
    10    19    20   ar
    11     5     6   am
    12     6     7    2
    13     6     8    1
    14     8     9   ar
    15     9    10   ar
    16    10    11   ar
    17    11    12    1
    18    11    13   ar
    19    13    14   ar
    20    14     2    1
    21    20    15   ar
    22    14     8   ar
@<TRIPOS>MOLECULE
*****
 20 22 0 0 0
SMALL
GASTEIGER

@<TRIPOS>ATOM
      1 C          62.0782   88.1771   10.8431 C.3     1  UNL1        0.0061
      2 C          62.2508   86.7868   11.3791 C.3     1  UNL1        0.0377
      3 C          61.4452   86.4933   10.1483 C.3     1  UNL1        0.0061
      4 C          62.1437   85.2946   11.4877 C.3     1  UNL1        0.1025
      5 N          62.7821   84.5788   12.6409 N.am    1  UNL1       -0.2534
      6 C          63.5277   85.3551   13.6856 C.2     1  UNL1        0.2525
      7 O          64.1661   84.6392   14.8388 O.2     1  UNL1       -0.2696
      8 C          63.6348   86.8474   13.5771 C.ar    1  UNL1        0.0500
      9 C          64.3804   87.6237   14.6217 C.ar    1  UNL1        0.0051
     10 C          64.4875   89.1159   14.5132 C.ar    1  UNL1        0.0115
     11 C          63.8491   89.8318   13.3599 C.ar    1  UNL1        0.0574
     12 CL         63.9562   91.3240   13.2514 Cl      1  UNL1       -0.0823
     13 C          63.1035   89.0554   12.3153 C.ar    1  UNL1        0.0073
     14 C          62.9964   87.5632   12.4238 C.ar    1  UNL1       -0.0160
     15 C          62.6750   83.0865   12.7495 C.ar    1  UNL1        0.0733
     16 C          62.3485   82.4520   14.0688 C.ar    1  UNL1        0.0181
     17 C          62.2413   80.9598   14.1773 C.ar    1  UNL1        0.0220
     18 C          62.4607   80.1021   12.9664 C.ar    1  UNL1        0.0990
     19 N          62.7872   80.7366   11.6471 N.ar    1  UNL1       -0.2410
     20 C          62.8943   82.2288   11.5386 C.ar    1  UNL1        0.1137
@<TRIPOS>BOND
     1     1     2    1
     2     2     3    1
     3     2     4    1
     4     4     5    1
     5     5    15    1
     6    15    16   ar
     7    16    17   ar
     8    17    18   ar
     9    18    19   ar
    10    19    20   ar
    11     5     6   am
    12     6     7    2
    13     6     8    1
    14     8     9   ar
    15     9    10   ar
    16    10    11   ar
    17    11    12    1
    18    11    13   ar
    19    13    14   ar
    20    14     2    1
    21    20    15   ar
    22    14     8   ar
@<TRIPOS>MOLECULE
*****
 20 22 0 0 0
SMALL
GASTEIGER

@<TRIPOS>ATOM
      1 C          64.3015   88.4867   14.2256 C.3     1  UNL1        0.0061
      2 C          63.8863   87.0874   13.8796 C.3     1  UNL1        0.0377
      3 C          64.5698   86.8394   15.1916 C.3     1  UNL1        0.0061
      4 C          63.7085   85.6020   13.9892 C.3     1  UNL1        0.1025
      5 N          62.9913   84.8506   12.9071 N.am    1  UNL1       -0.2534
      6 C          62.4520   85.5845   11.7153 C.2     1  UNL1        0.2525
      7 O          61.7348   84.8331   10.6331 O.2     1  UNL1       -0.2696
      8 C          62.6297   87.0700   11.6056 C.ar    1  UNL1        0.0500
      9 C          62.0904   87.8039   10.4138 C.ar    1  UNL1        0.0051
     10 C          62.2682   89.2892   10.3042 C.ar    1  UNL1        0.0115
     11 C          62.9853   90.0407   11.3863 C.ar    1  UNL1        0.0574
     12 CL         63.1631   91.5261   11.2767 Cl      1  UNL1       -0.0823
     13 C          63.5247   89.3067   12.5781 C.ar    1  UNL1        0.0073
     14 C          63.3469   87.8214   12.6878 C.ar    1  UNL1       -0.0160
     15 C          62.8136   83.3652   13.0168 C.ar    1  UNL1        0.0733
     16 C          63.1062   82.4857   11.8374 C.ar    1  UNL1        0.0181
     17 C          62.9284   81.0003   11.9472 C.ar    1  UNL1        0.0220
     18 C          62.4580   80.3945   13.2362 C.ar    1  UNL1        0.0990
     19 N          62.1654   81.2739   14.4155 N.ar    1  UNL1       -0.2410
     20 C          62.3431   82.7593   14.3058 C.ar    1  UNL1        0.1137
@<TRIPOS>BOND
     1     1     2    1
     2     2     3    1
     3     2     4    1
     4     4     5    1
     5     5    15    1
     6    15    16   ar
     7    16    17   ar
     8    17    18   ar
     9    18    19   ar
    10    19    20   ar
    11     5     6   am
    12     6     7    2
    13     6     8    1
    14     8     9   ar
    15     9    10   ar
    16    10    11   ar
    17    11    12    1
    18    11    13   ar
    19    13    14   ar
    20    14     2    1
    21    20    15   ar
    22    14     8   ar
@<TRIPOS>MOLECULE
*****
 20 22 0 0 0
SMALL
GASTEIGER

@<TRIPOS>ATOM
      1 C          66.5054   93.4276   11.7510 C.3     1  UNL1        0.0061
      2 C          65.3658   92.4543   11.6859 C.3     1  UNL1        0.0377
      3 C          65.4653   92.8361   10.2387 C.3     1  UNL1        0.0061
      4 C          64.2609   91.6137   11.1182 C.3     1  UNL1        0.1025
      5 N          63.4522   90.7292   12.0203 N.am    1  UNL1       -0.2534
      6 C          63.7485   90.6854   13.4900 C.2     1  UNL1        0.2525
      7 O          62.9398   89.8009   14.3921 O.2     1  UNL1       -0.2696
      8 C          64.8535   91.5260   14.0578 C.ar    1  UNL1        0.0500
      9 C          65.1498   91.4822   15.5275 C.ar    1  UNL1        0.0051
     10 C          66.2548   92.3228   16.0952 C.ar    1  UNL1        0.0115
     11 C          67.0635   93.2073   15.1931 C.ar    1  UNL1        0.0574
     12 CL         68.1685   94.0479   15.7609 Cl      1  UNL1       -0.0823
     13 C          66.7672   93.2511   13.7234 C.ar    1  UNL1        0.0073
     14 C          65.6622   92.4105   13.1557 C.ar    1  UNL1       -0.0160
     15 C          62.3471   89.8885   11.4525 C.ar    1  UNL1        0.0733
     16 C          62.5289   88.4063   11.3120 C.ar    1  UNL1        0.0181
     17 C          61.4239   87.5657   10.7442 C.ar    1  UNL1        0.0220
     18 C          60.1371   88.2074   10.3171 C.ar    1  UNL1        0.0990
     19 N          59.9554   89.6897   10.4576 N.ar    1  UNL1       -0.2410
     20 C          61.0604   90.5302   11.0253 C.ar    1  UNL1        0.1137
@<TRIPOS>BOND
     1     1     2    1
     2     2     3    1
     3     2     4    1
     4     4     5    1
     5     5    15    1
     6    15    16   ar
     7    16    17   ar
     8    17    18   ar
     9    18    19   ar
    10    19    20   ar
    11     5     6   am
    12     6     7    2
    13     6     8    1
    14     8     9   ar
    15     9    10   ar
    16    10    11   ar
    17    11    12    1
    18    11    13   ar
    19    13    14   ar
    20    14     2    1
    21    20    15   ar
    22    14     8   ar
@<TRIPOS>MOLECULE
*****
 20 22 0 0 0
SMALL
GASTEIGER

@<TRIPOS>ATOM
      1 C          63.5190   91.5645   10.0728 C.3     1  UNL1        0.0061
      2 C          63.6246   90.8152   11.3680 C.3     1  UNL1        0.0377
      3 C          62.6360   89.9486   10.6456 C.3     1  UNL1        0.0061
      4 C          63.3869   89.7651   12.4123 C.3     1  UNL1        0.1025
      5 N          64.1010   89.8417   13.7292 N.am    1  UNL1       -0.2534
      6 C          65.0528   90.9685   14.0017 C.2     1  UNL1        0.2525
      7 O          65.7670   91.0452   15.3186 O.2     1  UNL1       -0.2696
      8 C          65.2906   92.0188   12.9574 C.ar    1  UNL1        0.0500
      9 C          66.2424   93.1455   13.2300 C.ar    1  UNL1        0.0051
     10 C          66.4801   94.1957   12.1856 C.ar    1  UNL1        0.0115
     11 C          65.7659   94.1191   10.8688 C.ar    1  UNL1        0.0574
     12 CL         66.0036   95.1693    9.8244 Cl      1  UNL1       -0.0823
     13 C          64.8141   92.9923   10.5962 C.ar    1  UNL1        0.0073
     14 C          64.5764   91.9421   11.6405 C.ar    1  UNL1       -0.0160
     15 C          63.8633   88.7915   14.7735 C.ar    1  UNL1        0.0733
     16 C          64.3492   87.3898   14.5518 C.ar    1  UNL1        0.0181
     17 C          64.1115   86.3397   15.5961 C.ar    1  UNL1        0.0220
     18 C          63.3878   86.6912   16.8622 C.ar    1  UNL1        0.0990
     19 N          62.9019   88.0929   17.0839 N.ar    1  UNL1       -0.2410
     20 C          63.1397   89.1430   16.0395 C.ar    1  UNL1        0.1137
@<TRIPOS>BOND
     1     1     2    1
     2     2     3    1
     3     2     4    1
     4     4     5    1
     5     5    15    1
     6    15    16   ar
     7    16    17   ar
     8    17    18   ar
     9    18    19   ar
    10    19    20   ar
    11     5     6   am
    12     6     7    2
    13     6     8    1
    14     8     9   ar
    15     9    10   ar
    16    10    11   ar
    17    11    12    1
    18    11    13   ar
    19    13    14   ar
    20    14     2    1
    21    20    15   ar
    22    14     8   ar
@<TRIPOS>MOLECULE
*****
 20 22 0 0 0
SMALL
GASTEIGER

@<TRIPOS>ATOM
      1 C          63.1517   85.7211   12.7487 C.3     1  UNL1        0.0061
      2 C          63.5783   87.0668   13.2558 C.3     1  UNL1        0.0377
      3 C          64.1367   86.1915   14.3385 C.3     1  UNL1        0.0061
      4 C          64.1987   88.1085   14.1389 C.3     1  UNL1        0.1025
      5 N          64.1127   89.5582   13.7632 N.am    1  UNL1       -0.2534
      6 C          63.4061   89.9661   12.5045 C.2     1  UNL1        0.2525
      7 O          63.3201   91.4158   12.1289 O.2     1  UNL1       -0.2696
      8 C          62.7856   88.9244   11.6214 C.ar    1  UNL1        0.0500
      9 C          62.0791   89.3323   10.3627 C.ar    1  UNL1        0.0051
     10 C          61.4586   88.2906    9.4797 C.ar    1  UNL1        0.0115
     11 C          61.5447   86.8410    9.8553 C.ar    1  UNL1        0.0574
     12 CL         60.9242   85.7993    8.9722 Cl      1  UNL1       -0.0823
     13 C          62.2512   86.4330   11.1140 C.ar    1  UNL1        0.0073
     14 C          62.8717   87.4747   11.9971 C.ar    1  UNL1       -0.0160
     15 C          64.7332   90.5999   14.6464 C.ar    1  UNL1        0.0733
     16 C          66.1334   91.0690   14.3831 C.ar    1  UNL1        0.0181
     17 C          66.7539   92.1106   15.2662 C.ar    1  UNL1        0.0220
     18 C          65.9741   92.6832   16.4126 C.ar    1  UNL1        0.0990
     19 N          64.5739   92.2142   16.6758 N.ar    1  UNL1       -0.2410
     20 C          63.9534   91.1725   15.7927 C.ar    1  UNL1        0.1137
@<TRIPOS>BOND
     1     1     2    1
     2     2     3    1
     3     2     4    1
     4     4     5    1
     5     5    15    1
     6    15    16   ar
     7    16    17   ar
     8    17    18   ar
     9    18    19   ar
    10    19    20   ar
    11     5     6   am
    12     6     7    2
    13     6     8    1
    14     8     9   ar
    15     9    10   ar
    16    10    11   ar
    17    11    12    1
    18    11    13   ar
    19    13    14   ar
    20    14     2    1
    21    20    15   ar
    22    14     8   ar
@<TRIPOS>MOLECULE
*****
 20 22 0 0 0
SMALL
GASTEIGER

@<TRIPOS>ATOM
      1 C          62.1293   85.4314   11.0161 C.3     1  UNL1        0.0061
      2 C          62.5636   86.6977   11.6929 C.3     1  UNL1        0.0377
      3 C          63.2445   85.6876   12.5683 C.3     1  UNL1        0.0061
      4 C          63.2343   87.6131   12.6737 C.3     1  UNL1        0.1025
      5 N          63.0734   89.0988   12.5441 N.am    1  UNL1       -0.2534
      6 C          62.2417   89.6691   11.4337 C.2     1  UNL1        0.2525
      7 O          62.0808   91.1548   11.3041 O.2     1  UNL1       -0.2696
      8 C          61.5710   88.7536   10.4528 C.ar    1  UNL1        0.0500
      9 C          60.7393   89.3239    9.3424 C.ar    1  UNL1        0.0051
     10 C          60.0686   88.4085    8.3615 C.ar    1  UNL1        0.0115
     11 C          60.2295   86.9228    8.4911 C.ar    1  UNL1        0.0574
     12 CL         59.5588   86.0074    7.5102 Cl      1  UNL1       -0.0823
     13 C          61.0612   86.3525    9.6016 C.ar    1  UNL1        0.0073
     14 C          61.7319   87.2679   10.5824 C.ar    1  UNL1       -0.0160
     15 C          63.7441   90.0143   13.5251 C.ar    1  UNL1        0.0733
     16 C          64.9794   90.7657   13.1260 C.ar    1  UNL1        0.0181
     17 C          65.6501   91.6811   14.1069 C.ar    1  UNL1        0.0220
     18 C          65.0855   91.8450   15.4869 C.ar    1  UNL1        0.0990
     19 N          63.8503   91.0936   15.8859 N.ar    1  UNL1       -0.2410
     20 C          63.1796   90.1782   14.9051 C.ar    1  UNL1        0.1137
@<TRIPOS>BOND
     1     1     2    1
     2     2     3    1
     3     2     4    1
     4     4     5    1
     5     5    15    1
     6    15    16   ar
     7    16    17   ar
     8    17    18   ar
     9    18    19   ar
    10    19    20   ar
    11     5     6   am
    12     6     7    2
    13     6     8    1
    14     8     9   ar
    15     9    10   ar
    16    10    11   ar
    17    11    12    1
    18    11    13   ar
    19    13    14   ar
    20    14     2    1
    21    20    15   ar
    22    14     8   ar
@<TRIPOS>MOLECULE
*****
 20 22 0 0 0
SMALL
GASTEIGER

@<TRIPOS>ATOM
      1 C          64.1326   92.0994   11.4652 C.3     1  UNL1        0.0061
      2 C          63.4356   90.8765   10.9468 C.3     1  UNL1        0.0377
      3 C          63.2548   91.7956    9.7753 C.3     1  UNL1        0.0061
      4 C          62.6758   89.9728   10.0216 C.3     1  UNL1        0.1025
      5 N          62.3389   88.5747   10.4479 N.am    1  UNL1       -0.2534
      6 C          62.7617   88.0802   11.7994 C.2     1  UNL1        0.2525
      7 O          62.4248   86.6821   12.2257 O.2     1  UNL1       -0.2696
      8 C          63.5215   88.9839   12.7247 C.ar    1  UNL1        0.0500
      9 C          63.9444   88.4894   14.0763 C.ar    1  UNL1        0.0051
     10 C          64.7041   89.3931   15.0015 C.ar    1  UNL1        0.0115
     11 C          65.0411   90.7912   14.5752 C.ar    1  UNL1        0.0574
     12 CL         65.8009   91.6949   15.5005 Cl      1  UNL1       -0.0823
     13 C          64.6182   91.2857   13.2237 C.ar    1  UNL1        0.0073
     14 C          63.8585   90.3820   12.2984 C.ar    1  UNL1       -0.0160
     15 C          61.5791   87.6710    9.5226 C.ar    1  UNL1        0.0733
     16 C          62.2836   86.5415    8.8314 C.ar    1  UNL1        0.0181
     17 C          61.5238   85.6379    7.9061 C.ar    1  UNL1        0.0220
     18 C          60.0595   85.8638    7.6721 C.ar    1  UNL1        0.0990
     19 N          59.3550   86.9933    8.3633 N.ar    1  UNL1       -0.2410
     20 C          60.1148   87.8969    9.2885 C.ar    1  UNL1        0.1137
@<TRIPOS>BOND
     1     1     2    1
     2     2     3    1
     3     2     4    1
     4     4     5    1
     5     5    15    1
     6    15    16   ar
     7    16    17   ar
     8    17    18   ar
     9    18    19   ar
    10    19    20   ar
    11     5     6   am
    12     6     7    2
    13     6     8    1
    14     8     9   ar
    15     9    10   ar
    16    10    11   ar
    17    11    12    1
    18    11    13   ar
    19    13    14   ar
    20    14     2    1
    21    20    15   ar
    22    14     8   ar
