@<TRIPOS>MOLECULE
*****
 23 25 0 0 0
SMALL
GASTEIGER

@<TRIPOS>ATOM
      1 C          62.3153   88.7889   11.0283 C.2     1  UNL1       -0.0420
      2 C          62.9946   89.3359   12.2487 C.2     1  UNL1       -0.0240
      3 C          63.4758   88.1768   13.0702 C.ar    1  UNL1       -0.0078
      4 C          64.2124   88.1086   14.3751 C.ar    1  UNL1       -0.0006
      5 C          64.5671   86.7769   14.9673 C.ar    1  UNL1       -0.0000
      6 C          64.1852   85.5135   14.2546 C.ar    1  UNL1       -0.0003
      7 C          63.4486   85.5817   12.9497 C.ar    1  UNL1       -0.0040
      8 C          63.0939   86.9134   12.3575 C.ar    1  UNL1       -0.0184
      9 C          62.3767   87.2917   11.0956 C.3     1  UNL1        0.0480
     10 C          61.6852   89.5972    9.9330 C.3     1  UNL1        0.0394
     11 C          60.2255   89.4370    9.6274 C.3     1  UNL1        0.0765
     12 N          59.7882   88.5500    8.4996 N.3     1  UNL1       -0.2712
     13 C          59.4851   89.1411    7.1547 C.3     1  UNL1        0.0896
     14 C          59.6540   87.0719    8.7167 C.3     1  UNL1        0.0721
     15 C          61.6932   85.6638    7.9364 C.3     1  UNL1        0.0015
     16 C          60.2744   86.1118    7.7455 C.3     1  UNL1        0.0173
     17 C          63.1631   90.7873   12.5880 C.3     1  UNL1        0.0730
     18 C          64.4295   91.5017   12.2191 C.ar    1  UNL1        0.0825
     19 C          65.5101   91.6893   13.2423 C.ar    1  UNL1        0.1139
     20 N          66.7764   92.4036   12.8735 N.ar    1  UNL1       -0.2394
     21 C          66.9621   92.9304   11.4813 C.ar    1  UNL1        0.1195
     22 C          65.8815   92.7428   10.4581 C.ar    1  UNL1        0.1191
     23 N          64.6151   92.0285   10.8269 N.ar    1  UNL1       -0.2446
@<TRIPOS>BOND
     1    15    16    1
     2    16    14    1
     3    14    12    1
     4    12    13    1
     5    12    11    1
     6    11    10    1
     7    10     1    1
     8     1     2    2
     9     2    17    1
    10    17    18    1
    11    18    19   ar
    12    19    20   ar
    13    20    21   ar
    14    21    22   ar
    15    22    23   ar
    16     2     3    1
    17     3     4   ar
    18     4     5   ar
    19     5     6   ar
    20     6     7   ar
    21     7     8   ar
    22     8     9    1
    23     9     1    1
    24    23    18   ar
    25     8     3   ar
@<TRIPOS>MOLECULE
*****
 23 25 0 0 0
SMALL
GASTEIGER

@<TRIPOS>ATOM
      1 C          63.9454   89.1120   13.5171 C.2     1  UNL1       -0.0420
      2 C          63.7714   87.6241   13.4406 C.2     1  UNL1       -0.0240
      3 C          62.9727   87.3134   12.2095 C.ar    1  UNL1       -0.0078
      4 C          62.4952   86.0179   11.6233 C.ar    1  UNL1       -0.0006
      5 C          61.6980   86.0183   10.3527 C.ar    1  UNL1       -0.0000
      6 C          61.3782   87.3143    9.6684 C.ar    1  UNL1       -0.0003
      7 C          61.8557   88.6097   10.2546 C.ar    1  UNL1       -0.0040
      8 C          62.6529   88.6093   11.5252 C.ar    1  UNL1       -0.0184
      9 C          63.2541   89.7209   12.3333 C.3     1  UNL1        0.0480
     10 C          64.6813   89.8597   14.5891 C.3     1  UNL1        0.0394
     11 C          64.8361   91.3486   14.4938 C.3     1  UNL1        0.0765
     12 N          65.9493   91.9363   13.6782 N.3     1  UNL1       -0.2712
     13 C          65.6353   92.7984   12.4915 C.3     1  UNL1        0.0896
     14 C          67.3766   91.6618   14.0491 C.3     1  UNL1        0.0721
     15 C          68.0671   93.4223   15.8306 C.3     1  UNL1        0.0015
     16 C          67.8701   91.9912   15.4268 C.3     1  UNL1        0.0173
     17 C          64.3029   86.6226   14.4227 C.3     1  UNL1        0.0730
     18 C          63.8329   85.1990   14.3710 C.ar    1  UNL1        0.0825
     19 C          64.6498   84.1650   13.6543 C.ar    1  UNL1        0.1139
     20 N          64.1798   82.7415   13.6025 N.ar    1  UNL1       -0.2394
     21 C          62.8929   82.3520   14.2675 C.ar    1  UNL1        0.1195
     22 C          62.0760   83.3859   14.9841 C.ar    1  UNL1        0.1191
     23 N          62.5460   84.8094   15.0359 N.ar    1  UNL1       -0.2446
@<TRIPOS>BOND
     1    15    16    1
     2    16    14    1
     3    14    12    1
     4    12    13    1
     5    12    11    1
     6    11    10    1
     7    10     1    1
     8     1     2    2
     9     2    17    1
    10    17    18    1
    11    18    19   ar
    12    19    20   ar
    13    20    21   ar
    14    21    22   ar
    15    22    23   ar
    16     2     3    1
    17     3     4   ar
    18     4     5   ar
    19     5     6   ar
    20     6     7   ar
    21     7     8   ar
    22     8     9    1
    23     9     1    1
    24    23    18   ar
    25     8     3   ar
@<TRIPOS>MOLECULE
*****
 23 25 0 0 0
SMALL
GASTEIGER

@<TRIPOS>ATOM
      1 C          63.9969   89.8246   13.5922 C.2     1  UNL1       -0.0420
      2 C          63.9257   88.3278   13.6581 C.2     1  UNL1       -0.0240
      3 C          63.1961   87.8443   12.4398 C.ar    1  UNL1       -0.0078
      4 C          62.8285   86.4679   11.9704 C.ar    1  UNL1       -0.0006
      5 C          62.0812   86.2897   10.6821 C.ar    1  UNL1       -0.0000
      6 C          61.7016   87.4878    9.8633 C.ar    1  UNL1       -0.0003
      7 C          62.0692   88.8641   10.3327 C.ar    1  UNL1       -0.0040
      8 C          62.8165   89.0424   11.6210 C.ar    1  UNL1       -0.0184
      9 C          63.3114   90.2663   12.3332 C.3     1  UNL1        0.0480
     10 C          64.6407   90.7222   14.6070 C.3     1  UNL1        0.0394
     11 C          66.0970   91.0621   14.4912 C.3     1  UNL1        0.0765
     12 N          66.5338   92.4971   14.4818 N.3     1  UNL1       -0.2712
     13 C          67.1572   93.0993   15.7061 C.3     1  UNL1        0.0896
     14 C          66.3472   93.3299   13.2483 C.3     1  UNL1        0.0721
     15 C          65.3768   92.8146   10.8940 C.3     1  UNL1        0.0015
     16 C          66.4908   92.7046   11.8924 C.3     1  UNL1        0.0173
     17 C          64.4856   87.4656   14.7504 C.3     1  UNL1        0.0730
     18 C          64.1105   86.0153   14.8280 C.ar    1  UNL1        0.0825
     19 C          64.9886   84.9785   14.1925 C.ar    1  UNL1        0.1139
     20 N          64.6135   83.5282   14.2700 N.ar    1  UNL1       -0.2394
     21 C          63.3603   83.1148   14.9832 C.ar    1  UNL1        0.1195
     22 C          62.4822   84.1516   15.6187 C.ar    1  UNL1        0.1191
     23 N          62.8573   85.6019   15.5412 N.ar    1  UNL1       -0.2446
@<TRIPOS>BOND
     1    15    16    1
     2    16    14    1
     3    14    12    1
     4    12    13    1
     5    12    11    1
     6    11    10    1
     7    10     1    1
     8     1     2    2
     9     2    17    1
    10    17    18    1
    11    18    19   ar
    12    19    20   ar
    13    20    21   ar
    14    21    22   ar
    15    22    23   ar
    16     2     3    1
    17     3     4   ar
    18     4     5   ar
    19     5     6   ar
    20     6     7   ar
    21     7     8   ar
    22     8     9    1
    23     9     1    1
    24    23    18   ar
    25     8     3   ar
@<TRIPOS>MOLECULE
*****
 23 25 0 0 0
SMALL
GASTEIGER

@<TRIPOS>ATOM
      1 C          62.4262   83.6909   14.3680 C.2     1  UNL1       -0.0420
      2 C          62.8518   83.9863   12.9604 C.2     1  UNL1       -0.0240
      3 C          62.9188   82.6869   12.2140 C.ar    1  UNL1       -0.0078
      4 C          63.2800   82.3620   10.7949 C.ar    1  UNL1       -0.0006
      5 C          63.2571   80.9387   10.3222 C.ar    1  UNL1       -0.0000
      6 C          62.8729   79.8402   11.2687 C.ar    1  UNL1       -0.0003
      7 C          62.5117   80.1651   12.6878 C.ar    1  UNL1       -0.0040
      8 C          62.5346   81.5884   13.1604 C.ar    1  UNL1       -0.0184
      9 C          62.2302   82.2090   14.4917 C.3     1  UNL1        0.0480
     10 C          62.2308   84.7003   15.4603 C.3     1  UNL1        0.0394
     11 C          63.4047   85.4701   15.9888 C.3     1  UNL1        0.0765
     12 N          63.1849   86.7413   16.7542 N.3     1  UNL1       -0.2712
     13 C          62.7920   86.6873   18.2009 C.3     1  UNL1        0.0896
     14 C          63.3580   88.0664   16.0730 C.3     1  UNL1        0.0721
     15 C          64.5630   89.5337   14.2996 C.3     1  UNL1        0.0015
     16 C          64.2591   88.1842   14.8796 C.3     1  UNL1        0.0173
     17 C          63.1568   85.3429   12.3977 C.3     1  UNL1        0.0730
     18 C          62.2894   85.9196   11.3182 C.ar    1  UNL1        0.0825
     19 C          62.5471   85.5705    9.8824 C.ar    1  UNL1        0.1139
     20 N          61.6798   86.1470    8.8030 N.ar    1  UNL1       -0.2394
     21 C          60.5546   87.0728    9.1594 C.ar    1  UNL1        0.1195
     22 C          60.2969   87.4219   10.5952 C.ar    1  UNL1        0.1191
     23 N          61.1642   86.8454   11.6747 N.ar    1  UNL1       -0.2446
@<TRIPOS>BOND
     1    15    16    1
     2    16    14    1
     3    14    12    1
     4    12    13    1
     5    12    11    1
     6    11    10    1
     7    10     1    1
     8     1     2    2
     9     2    17    1
    10    17    18    1
    11    18    19   ar
    12    19    20   ar
    13    20    21   ar
    14    21    22   ar
    15    22    23   ar
    16     2     3    1
    17     3     4   ar
    18     4     5   ar
    19     5     6   ar
    20     6     7   ar
    21     7     8   ar
    22     8     9    1
    23     9     1    1
    24    23    18   ar
    25     8     3   ar
@<TRIPOS>MOLECULE
*****
 23 25 0 0 0
SMALL
GASTEIGER

@<TRIPOS>ATOM
      1 C          62.1843   86.4946   11.1987 C.2     1  UNL1       -0.0420
      2 C          61.5452   87.8373   11.0018 C.2     1  UNL1       -0.0240
      3 C          60.7951   87.8077    9.7031 C.ar    1  UNL1       -0.0078
      4 C          59.9750   88.8443    8.9940 C.ar    1  UNL1       -0.0006
      5 C          59.3304   88.5198    7.6790 C.ar    1  UNL1       -0.0000
      6 C          59.5059   87.1588    7.0732 C.ar    1  UNL1       -0.0003
      7 C          60.3260   86.1223    7.7824 C.ar    1  UNL1       -0.0040
      8 C          60.9706   86.4468    9.0974 C.ar    1  UNL1       -0.0184
      9 C          61.8292   85.6352   10.0217 C.3     1  UNL1        0.0480
     10 C          63.0300   86.0835   12.3674 C.3     1  UNL1        0.0394
     11 C          62.7293   84.8092   13.0993 C.3     1  UNL1        0.0765
     12 N          63.8510   83.9270   13.5611 N.3     1  UNL1       -0.2712
     13 C          64.5604   84.2275   14.8482 C.3     1  UNL1        0.0896
     14 C          64.2634   82.7442   12.7359 C.3     1  UNL1        0.0721
     15 C          64.2173   82.9203   10.1443 C.3     1  UNL1        0.0015
     16 C          63.5841   82.4694   11.4271 C.3     1  UNL1        0.0173
     17 C          61.6396   89.0046   11.9391 C.3     1  UNL1        0.0730
     18 C          62.7028   90.0436   11.7383 C.ar    1  UNL1        0.0825
     19 C          62.8743   90.6917   10.3965 C.ar    1  UNL1        0.1139
     20 N          63.9375   91.7306   10.1958 N.ar    1  UNL1       -0.2394
     21 C          64.8292   92.1213   11.3369 C.ar    1  UNL1        0.1195
     22 C          64.6577   91.4732   12.6787 C.ar    1  UNL1        0.1191
     23 N          63.5946   90.4343   12.8795 N.ar    1  UNL1       -0.2446
@<TRIPOS>BOND
     1    15    16    1
     2    16    14    1
     3    14    12    1
     4    12    13    1
     5    12    11    1
     6    11    10    1
     7    10     1    1
     8     1     2    2
     9     2    17    1
    10    17    18    1
    11    18    19   ar
    12    19    20   ar
    13    20    21   ar
    14    21    22   ar
    15    22    23   ar
    16     2     3    1
    17     3     4   ar
    18     4     5   ar
    19     5     6   ar
    20     6     7   ar
    21     7     8   ar
    22     8     9    1
    23     9     1    1
    24    23    18   ar
    25     8     3   ar
@<TRIPOS>MOLECULE
*****
 23 25 0 0 0
SMALL
GASTEIGER

@<TRIPOS>ATOM
      1 C          62.2003   88.7679   11.1030 C.2     1  UNL1       -0.0420
      2 C          61.5213   87.4453   10.9035 C.2     1  UNL1       -0.0240
      3 C          60.6452   87.5523    9.6906 C.ar    1  UNL1       -0.0078
      4 C          59.7399   86.5647    9.0161 C.ar    1  UNL1       -0.0006
      5 C          58.9723   86.9657    7.7915 C.ar    1  UNL1       -0.0000
      6 C          59.1098   88.3544    7.2414 C.ar    1  UNL1       -0.0003
      7 C          60.0150   89.3421    7.9159 C.ar    1  UNL1       -0.0040
      8 C          60.7827   88.9410    9.1405 C.ar    1  UNL1       -0.0184
      9 C          61.7438   89.6923   10.0134 C.3     1  UNL1        0.0480
     10 C          63.1662   89.1066   12.1995 C.3     1  UNL1        0.0394
     11 C          63.2452   90.5103   12.7224 C.3     1  UNL1        0.0765
     12 N          64.2831   91.4523   12.1883 N.3     1  UNL1       -0.2712
     13 C          64.2525   91.8625   10.7458 C.3     1  UNL1        0.0896
     14 C          65.3517   91.9841   13.0968 C.3     1  UNL1        0.0721
     15 C          67.1028   91.4140   14.9294 C.3     1  UNL1        0.0015
     16 C          65.7459   91.2141   14.3223 C.3     1  UNL1        0.0173
     17 C          61.6890   86.2293   11.7655 C.3     1  UNL1        0.0730
     18 C          62.6206   85.1324   11.3421 C.ar    1  UNL1        0.0825
     19 C          63.2816   84.2692   12.3755 C.ar    1  UNL1        0.1139
     20 N          64.2132   83.1725   11.9522 N.ar    1  UNL1       -0.2394
     21 C          64.4838   82.9389   10.4954 C.ar    1  UNL1        0.1195
     22 C          63.8228   83.8022    9.4620 C.ar    1  UNL1        0.1191
     23 N          62.8912   84.8989    9.8853 N.ar    1  UNL1       -0.2446
@<TRIPOS>BOND
     1    15    16    1
     2    16    14    1
     3    14    12    1
     4    12    13    1
     5    12    11    1
     6    11    10    1
     7    10     1    1
     8     1     2    2
     9     2    17    1
    10    17    18    1
    11    18    19   ar
    12    19    20   ar
    13    20    21   ar
    14    21    22   ar
    15    22    23   ar
    16     2     3    1
    17     3     4   ar
    18     4     5   ar
    19     5     6   ar
    20     6     7   ar
    21     7     8   ar
    22     8     9    1
    23     9     1    1
    24    23    18   ar
    25     8     3   ar
@<TRIPOS>MOLECULE
*****
 23 25 0 0 0
SMALL
GASTEIGER

@<TRIPOS>ATOM
      1 C          63.9532   86.1403   14.1814 C.2     1  UNL1       -0.0420
      2 C          63.3103   86.6776   12.9373 C.2     1  UNL1       -0.0240
      3 C          63.5345   88.1603   12.9028 C.ar    1  UNL1       -0.0078
      4 C          63.1280   89.2142   11.9160 C.ar    1  UNL1       -0.0006
      5 C          63.5030   90.6473   12.1520 C.ar    1  UNL1       -0.0000
      6 C          64.2845   91.0264   13.3749 C.ar    1  UNL1       -0.0003
      7 C          64.6910   89.9725   14.3618 C.ar    1  UNL1       -0.0040
      8 C          64.3160   88.5394   14.1258 C.ar    1  UNL1       -0.0184
      9 C          64.5748   87.2910   14.9159 C.3     1  UNL1        0.0480
     10 C          63.9714   84.7044   14.6149 C.3     1  UNL1        0.0394
     11 C          64.3247   83.6284   13.6314 C.3     1  UNL1        0.0765
     12 N          63.3066   82.5936   13.2539 N.3     1  UNL1       -0.2712
     13 C          62.1960   82.2529   14.2030 C.3     1  UNL1        0.0896
     14 C          63.3989   81.8995   11.9274 C.3     1  UNL1        0.0721
     15 C          63.9266   83.4042    9.8762 C.3     1  UNL1        0.0015
     16 C          64.3653   82.3896   10.8902 C.3     1  UNL1        0.0173
     17 C          62.5726   85.8733   11.9082 C.3     1  UNL1        0.0730
     18 C          61.6833   86.5610   10.9150 C.ar    1  UNL1        0.0825
     19 C          61.9198   86.3797    9.4449 C.ar    1  UNL1        0.1139
     20 N          61.0305   87.0673    8.4517 N.ar    1  UNL1       -0.2394
     21 C          59.9048   87.9363    8.9287 C.ar    1  UNL1        0.1195
     22 C          59.6683   88.1176   10.3988 C.ar    1  UNL1        0.1191
     23 N          60.5575   87.4300   11.3920 N.ar    1  UNL1       -0.2446
@<TRIPOS>BOND
     1    15    16    1
     2    16    14    1
     3    14    12    1
     4    12    13    1
     5    12    11    1
     6    11    10    1
     7    10     1    1
     8     1     2    2
     9     2    17    1
    10    17    18    1
    11    18    19   ar
    12    19    20   ar
    13    20    21   ar
    14    21    22   ar
    15    22    23   ar
    16     2     3    1
    17     3     4   ar
    18     4     5   ar
    19     5     6   ar
    20     6     7   ar
    21     7     8   ar
    22     8     9    1
    23     9     1    1
    24    23    18   ar
    25     8     3   ar
@<TRIPOS>MOLECULE
*****
 23 25 0 0 0
SMALL
GASTEIGER

@<TRIPOS>ATOM
      1 C          63.6638   87.4834   13.2679 C.2     1  UNL1       -0.0420
      2 C          62.9809   86.6416   12.2310 C.2     1  UNL1       -0.0240
      3 C          63.1374   85.2029   12.6254 C.ar    1  UNL1       -0.0078
      4 C          62.6707   83.9299   11.9839 C.ar    1  UNL1       -0.0006
      5 C          62.9836   82.6094   12.6230 C.ar    1  UNL1       -0.0000
      6 C          63.7631   82.5620   13.9037 C.ar    1  UNL1       -0.0003
      7 C          64.2298   83.8350   14.5452 C.ar    1  UNL1       -0.0040
      8 C          63.9169   85.1554   13.9061 C.ar    1  UNL1       -0.0184
      9 C          64.2422   86.5649   14.3031 C.3     1  UNL1        0.0480
     10 C          63.7526   88.9808   13.2693 C.3     1  UNL1        0.0394
     11 C          64.5998   89.6809   14.2900 C.3     1  UNL1        0.0765
     12 N          65.0925   91.0733   14.0282 N.3     1  UNL1       -0.2712
     13 C          64.7466   91.7616   12.7410 C.3     1  UNL1        0.0896
     14 C          65.9310   91.7774   15.0534 C.3     1  UNL1        0.0721
     15 C          68.2595   92.2949   16.0830 C.3     1  UNL1        0.0015
     16 C          67.4250   91.6481   15.0176 C.3     1  UNL1        0.0173
     17 C          62.2670   87.1494   11.0135 C.3     1  UNL1        0.0730
     18 C          61.3165   88.3042   11.1284 C.ar    1  UNL1        0.0825
     19 C          61.6183   89.5964   10.4290 C.ar    1  UNL1        0.1139
     20 N          60.6679   90.7512   10.5438 N.ar    1  UNL1       -0.2394
     21 C          59.4157   90.6138   11.3582 C.ar    1  UNL1        0.1195
     22 C          59.1140   89.3216   12.0577 C.ar    1  UNL1        0.1191
     23 N          60.0644   88.1668   11.9428 N.ar    1  UNL1       -0.2446
@<TRIPOS>BOND
     1    15    16    1
     2    16    14    1
     3    14    12    1
     4    12    13    1
     5    12    11    1
     6    11    10    1
     7    10     1    1
     8     1     2    2
     9     2    17    1
    10    17    18    1
    11    18    19   ar
    12    19    20   ar
    13    20    21   ar
    14    21    22   ar
    15    22    23   ar
    16     2     3    1
    17     3     4   ar
    18     4     5   ar
    19     5     6   ar
    20     6     7   ar
    21     7     8   ar
    22     8     9    1
    23     9     1    1
    24    23    18   ar
    25     8     3   ar
@<TRIPOS>MOLECULE
*****
 23 25 0 0 0
SMALL
GASTEIGER

@<TRIPOS>ATOM
      1 C          62.4259   86.3905   11.8826 C.2     1  UNL1       -0.0420
      2 C          61.9345   87.5300   11.0400 C.2     1  UNL1       -0.0240
      3 C          62.5705   88.7901   11.5478 C.ar    1  UNL1       -0.0078
      4 C          62.4586   90.2193   11.1066 C.ar    1  UNL1       -0.0006
      5 C          63.2310   91.2877   11.8219 C.ar    1  UNL1       -0.0000
      6 C          64.1154   90.9269   12.9785 C.ar    1  UNL1       -0.0003
      7 C          64.2273   89.4977   13.4197 C.ar    1  UNL1       -0.0040
      8 C          63.4549   88.4293   12.7044 C.ar    1  UNL1       -0.0184
      9 C          63.3655   86.9463   12.9113 C.3     1  UNL1        0.0480
     10 C          62.0445   84.9485   11.7244 C.3     1  UNL1        0.0394
     11 C          63.0985   83.9215   11.4341 C.3     1  UNL1        0.0765
     12 N          63.4650   82.9074   12.4769 N.3     1  UNL1       -0.2712
     13 C          64.1739   83.3392   13.7264 C.3     1  UNL1        0.0896
     14 C          63.1227   81.4617   12.2703 C.3     1  UNL1        0.0721
     15 C          61.2570   81.1792   14.0561 C.3     1  UNL1        0.0015
     16 C          62.4977   80.6726   13.3822 C.3     1  UNL1        0.0173
     17 C          60.9756   87.4276    9.8911 C.3     1  UNL1        0.0730
     18 C          61.2498   86.4714    8.7682 C.ar    1  UNL1        0.0825
     19 C          60.1397   86.0558    7.8491 C.ar    1  UNL1        0.1139
     20 N          60.4139   85.0998    6.7262 N.ar    1  UNL1       -0.2394
     21 C          61.7982   84.5593    6.5226 C.ar    1  UNL1        0.1195
     22 C          62.9084   84.9750    7.4417 C.ar    1  UNL1        0.1191
     23 N          62.6342   85.9310    8.5645 N.ar    1  UNL1       -0.2446
@<TRIPOS>BOND
     1    15    16    1
     2    16    14    1
     3    14    12    1
     4    12    13    1
     5    12    11    1
     6    11    10    1
     7    10     1    1
     8     1     2    2
     9     2    17    1
    10    17    18    1
    11    18    19   ar
    12    19    20   ar
    13    20    21   ar
    14    21    22   ar
    15    22    23   ar
    16     2     3    1
    17     3     4   ar
    18     4     5   ar
    19     5     6   ar
    20     6     7   ar
    21     7     8   ar
    22     8     9    1
    23     9     1    1
    24    23    18   ar
    25     8     3   ar
