@<TRIPOS>MOLECULE
*****
 34 37 0 0 0
SMALL
GASTEIGER

@<TRIPOS>ATOM
      1 N          63.0689   90.9213   11.5203 N.am    1  UNL1       -0.2438
      2 C          63.6211   91.5910   10.2970 C.3     1  UNL1        0.1009
      3 C          64.7893   92.5244   10.4158 C.3     1  UNL1        0.0662
      4 C          65.4052   92.7881   11.7578 C.3     1  UNL1        0.1600
      5 O          64.8530   92.1185   12.9811 O.3     1  UNL1       -0.4374
      6 C          63.6848   91.1850   12.8624 C.2     1  UNL1        0.4051
      7 O          63.1326   90.5154   14.0857 O.2     1  UNL1       -0.2262
      8 C          66.2764   93.6538   10.8967 C.ar    1  UNL1        0.0138
      9 C          67.1791   93.0286    9.8748 C.ar    1  UNL1       -0.0010
     10 C          68.0503   93.8943    9.0137 C.ar    1  UNL1       -0.0002
     11 C          68.0189   95.3853    9.1745 C.ar    1  UNL1       -0.0000
     12 C          67.1163   96.0106   10.1963 C.ar    1  UNL1       -0.0002
     13 C          66.2450   95.1449   11.0574 C.ar    1  UNL1       -0.0010
     14 C          61.9008   89.9878   11.4016 C.3     1  UNL1        0.1011
     15 C          60.5528   90.5190   11.0135 C.3     1  UNL1        0.0265
     16 C          62.4403   85.5940   12.2099 C.ar    1  UNL1        0.0192
     17 C          63.3617   86.5923   12.8459 C.ar    1  UNL1        0.0013
     18 C          63.1818   88.0569   12.5765 C.ar    1  UNL1       -0.0026
     19 C          62.0806   88.5232   11.6711 C.ar    1  UNL1       -0.0042
     20 C          61.1593   87.5250   11.0351 C.ar    1  UNL1       -0.0026
     21 C          61.3391   86.0604   11.3045 C.ar    1  UNL1        0.0013
     22 C          63.1598   79.7356   13.2876 C.3     1  UNL1        0.0538
     23 C          62.9799   81.2002   13.0182 C.ar    1  UNL1        0.0785
     24 C          62.6078   82.1283   14.1363 C.ar    1  UNL1        0.1135
     25 N          62.4280   83.5929   13.8668 N.ar    1  UNL1       -0.2410
     26 C          62.6202   84.1294   12.4793 C.ar    1  UNL1        0.1004
     27 C          62.9923   83.2013   11.3613 C.ar    1  UNL1        0.1175
     28 N          63.1722   81.7367   11.6307 N.ar    1  UNL1       -0.2450
     29 C          66.3237   93.3525   12.8008 C.3     1  UNL1        0.0714
     30 C          66.9887   92.4395   13.7878 C.3     1  UNL1        0.0922
     31 C          66.2595   93.1197   14.9084 C.3     1  UNL1        0.0294
     32 C          67.7179   91.7593   12.6672 C.3     1  UNL1        0.0294
     33 O          67.6538   91.5265   14.7748 O.3     1  UNL1       -0.3866
     34 H          67.3526   91.7444   15.6707 H       1  UNL1        0.2102
@<TRIPOS>BOND
     1    22    23    1
     2    23    24   ar
     3    24    25   ar
     4    25    26   ar
     5    26    16    1
     6    16    17   ar
     7    17    18   ar
     8    18    19   ar
     9    19    14    1
    10    14    15    1
    11    14     1    1
    12     1     2    1
    13     2     3    1
    14     3     4    1
    15     4    29    1
    16    29    30    1
    17    30    31    1
    18    30    32    1
    19    30    33    1
    20     4     8    1
    21     8     9   ar
    22     9    10   ar
    23    10    11   ar
    24    11    12   ar
    25    12    13   ar
    26     4     5    1
    27     5     6    1
    28     6     7    2
    29    19    20   ar
    30    20    21   ar
    31    26    27   ar
    32    27    28   ar
    33    28    23   ar
    34    21    16   ar
    35     6     1   am
    36    13     8   ar
    37    33    34    1
@<TRIPOS>MOLECULE
*****
 34 37 0 0 0
SMALL
GASTEIGER

@<TRIPOS>ATOM
      1 N          63.5472   90.5694   11.9274 N.am    1  UNL1       -0.2438
      2 C          64.2308   90.4059   13.2525 C.3     1  UNL1        0.1009
      3 C          65.4196   91.2551   13.5930 C.3     1  UNL1        0.0662
      4 C          65.9247   92.2677   12.6084 C.3     1  UNL1        0.1600
      5 O          65.2410   92.4312   11.2833 O.3     1  UNL1       -0.4374
      6 C          64.0523   91.5821   10.9428 C.2     1  UNL1        0.4051
      7 O          63.3687   91.7456    9.6177 O.2     1  UNL1       -0.2262
      8 C          66.9015   92.4816   13.7263 C.ar    1  UNL1        0.0138
      9 C          68.3166   92.0038   13.5877 C.ar    1  UNL1       -0.0010
     10 C          69.2934   92.2178   14.7056 C.ar    1  UNL1       -0.0002
     11 C          68.8552   92.9096   15.9624 C.ar    1  UNL1       -0.0000
     12 C          67.4402   93.3874   16.1012 C.ar    1  UNL1       -0.0002
     13 C          66.4633   93.1734   14.9832 C.ar    1  UNL1       -0.0010
     14 C          62.3585   89.7203   11.5869 C.3     1  UNL1        0.1011
     15 C          61.1185   90.3547   11.0301 C.3     1  UNL1        0.0265
     16 C          62.5122   85.2700   12.2358 C.ar    1  UNL1        0.0192
     17 C          61.5887   85.8460   11.2036 C.ar    1  UNL1        0.0013
     18 C          61.5375   87.3294   10.9874 C.ar    1  UNL1       -0.0026
     19 C          62.4097   88.2369   11.8032 C.ar    1  UNL1       -0.0042
     20 C          63.3332   87.6609   12.8353 C.ar    1  UNL1       -0.0026
     21 C          63.3845   86.1775   13.0516 C.ar    1  UNL1        0.0013
     22 C          62.7172   79.3363   13.1010 C.3     1  UNL1        0.0538
     23 C          62.6660   80.8197   12.8847 C.ar    1  UNL1        0.0785
     24 C          62.2937   81.7303   14.0170 C.ar    1  UNL1        0.1135
     25 N          62.2425   83.2137   13.8007 N.ar    1  UNL1       -0.2410
     26 C          62.5635   83.7866   12.4521 C.ar    1  UNL1        0.1004
     27 C          62.9357   82.8760   11.3198 C.ar    1  UNL1        0.1175
     28 N          62.9870   81.3925   11.5361 N.ar    1  UNL1       -0.2450
     29 C          66.7690   93.3546   12.0120 C.3     1  UNL1        0.0714
     30 C          66.5804   93.7488   10.5770 C.3     1  UNL1        0.0922
     31 C          67.4597   92.6114   10.1490 C.3     1  UNL1        0.0294
     32 C          65.7010   94.8862   11.0051 C.3     1  UNL1        0.0294
     33 O          66.3917   94.1430    9.1421 O.3     1  UNL1       -0.3866
     34 H          66.8872   93.5346    8.5718 H       1  UNL1        0.2102
@<TRIPOS>BOND
     1    22    23    1
     2    23    24   ar
     3    24    25   ar
     4    25    26   ar
     5    26    16    1
     6    16    17   ar
     7    17    18   ar
     8    18    19   ar
     9    19    14    1
    10    14    15    1
    11    14     1    1
    12     1     2    1
    13     2     3    1
    14     3     4    1
    15     4    29    1
    16    29    30    1
    17    30    31    1
    18    30    32    1
    19    30    33    1
    20     4     8    1
    21     8     9   ar
    22     9    10   ar
    23    10    11   ar
    24    11    12   ar
    25    12    13   ar
    26     4     5    1
    27     5     6    1
    28     6     7    2
    29    19    20   ar
    30    20    21   ar
    31    26    27   ar
    32    27    28   ar
    33    28    23   ar
    34    21    16   ar
    35     6     1   am
    36    13     8   ar
    37    33    34    1
@<TRIPOS>MOLECULE
*****
 34 37 0 0 0
SMALL
GASTEIGER

@<TRIPOS>ATOM
      1 N          62.2893   87.7235   12.1640 N.am    1  UNL1       -0.2438
      2 C          61.9534   86.6351   11.1881 C.3     1  UNL1        0.1009
      3 C          62.4876   85.2491   11.3974 C.3     1  UNL1        0.0662
      4 C          63.3576   84.9516   12.5826 C.3     1  UNL1        0.1600
      5 O          63.6934   86.0401   13.5585 O.3     1  UNL1       -0.4374
      6 C          63.1593   87.4260   13.3492 C.2     1  UNL1        0.4051
      7 O          63.4951   88.5145   14.3251 O.2     1  UNL1       -0.2262
      8 C          63.3193   83.5964   11.9409 C.ar    1  UNL1        0.0138
      9 C          63.9840   83.3754   10.6145 C.ar    1  UNL1       -0.0010
     10 C          63.9457   82.0202    9.9728 C.ar    1  UNL1       -0.0002
     11 C          63.2426   80.8858   10.6575 C.ar    1  UNL1       -0.0000
     12 C          62.5778   81.1066   11.9838 C.ar    1  UNL1       -0.0002
     13 C          62.6161   82.4619   12.6256 C.ar    1  UNL1       -0.0010
     14 C          61.7551   89.1095   11.9548 C.3     1  UNL1        0.1011
     15 C          60.2951   89.3888   12.1556 C.3     1  UNL1        0.0265
     16 C          64.5327   92.4294   10.7246 C.ar    1  UNL1        0.0192
     17 C          63.6368   91.7857    9.7082 C.ar    1  UNL1        0.0013
     18 C          62.7110   90.6790   10.1183 C.ar    1  UNL1       -0.0026
     19 C          62.6810   90.2161   11.5447 C.ar    1  UNL1       -0.0042
     20 C          63.5768   90.8599   12.5611 C.ar    1  UNL1       -0.0026
     21 C          64.5026   91.9665   12.1510 C.ar    1  UNL1        0.0013
     22 C          68.2360   96.8559    9.0843 C.3     1  UNL1        0.0538
     23 C          67.3102   95.7493    9.4944 C.ar    1  UNL1        0.0785
     24 C          65.8950   96.0604    9.8822 C.ar    1  UNL1        0.1135
     25 N          64.9692   94.9538   10.2922 N.ar    1  UNL1       -0.2410
     26 C          65.4585   93.5360   10.3145 C.ar    1  UNL1        0.1004
     27 C          66.8737   93.2249    9.9267 C.ar    1  UNL1        0.1175
     28 N          67.7995   94.3316    9.5166 N.ar    1  UNL1       -0.2450
     29 C          64.2143   84.1835   13.5449 C.3     1  UNL1        0.0714
     30 C          64.4172   84.6939   14.9407 C.3     1  UNL1        0.0922
     31 C          63.0405   84.2276   15.3114 C.3     1  UNL1        0.0294
     32 C          65.7939   85.1603   14.5701 C.3     1  UNL1        0.0294
     33 O          64.6201   85.2044   16.3366 O.3     1  UNL1       -0.3866
     34 H          63.8245   85.0301   16.8634 H       1  UNL1        0.2102
@<TRIPOS>BOND
     1    22    23    1
     2    23    24   ar
     3    24    25   ar
     4    25    26   ar
     5    26    16    1
     6    16    17   ar
     7    17    18   ar
     8    18    19   ar
     9    19    14    1
    10    14    15    1
    11    14     1    1
    12     1     2    1
    13     2     3    1
    14     3     4    1
    15     4    29    1
    16    29    30    1
    17    30    31    1
    18    30    32    1
    19    30    33    1
    20     4     8    1
    21     8     9   ar
    22     9    10   ar
    23    10    11   ar
    24    11    12   ar
    25    12    13   ar
    26     4     5    1
    27     5     6    1
    28     6     7    2
    29    19    20   ar
    30    20    21   ar
    31    26    27   ar
    32    27    28   ar
    33    28    23   ar
    34    21    16   ar
    35     6     1   am
    36    13     8   ar
    37    33    34    1
@<TRIPOS>MOLECULE
*****
 34 37 0 0 0
SMALL
GASTEIGER

@<TRIPOS>ATOM
      1 N          63.9973   90.8540   12.9579 N.am    1  UNL1       -0.2438
      2 C          64.0523   91.6719   11.7017 C.3     1  UNL1        0.1009
      3 C          65.0662   92.7689   11.5648 C.3     1  UNL1        0.0662
      4 C          66.0249   93.0481   12.6841 C.3     1  UNL1        0.1600
      5 O          65.9698   92.2303   13.9403 O.3     1  UNL1       -0.4374
      6 C          64.9560   91.1333   14.0772 C.2     1  UNL1        0.4051
      7 O          64.9010   90.3154   15.3335 O.2     1  UNL1       -0.2262
      8 C          66.4661   94.0883   11.6976 C.ar    1  UNL1        0.0138
      9 C          66.2303   95.5417   11.9842 C.ar    1  UNL1       -0.0010
     10 C          66.6715   96.5819   10.9977 C.ar    1  UNL1       -0.0002
     11 C          67.3486   96.1688    9.7246 C.ar    1  UNL1       -0.0000
     12 C          67.5845   94.7155    9.4379 C.ar    1  UNL1       -0.0002
     13 C          67.1433   93.6752   10.4244 C.ar    1  UNL1       -0.0010
     14 C          62.9835   89.7570   13.0948 C.3     1  UNL1        0.1011
     15 C          62.2524   89.5690   14.3910 C.3     1  UNL1        0.0265
     16 C          62.1354   87.0301    9.6171 C.ar    1  UNL1        0.0192
     17 C          62.0273   88.5166    9.4483 C.ar    1  UNL1        0.0013
     18 C          62.3100   89.4256   10.6076 C.ar    1  UNL1       -0.0026
     19 C          62.7008   88.8481   11.9356 C.ar    1  UNL1       -0.0042
     20 C          62.8089   87.3615   12.1043 C.ar    1  UNL1       -0.0026
     21 C          62.5262   86.4526   10.9451 C.ar    1  UNL1        0.0013
     22 C          61.0046   83.3942    4.9801 C.3     1  UNL1        0.0538
     23 C          61.2873   84.3032    6.1393 C.ar    1  UNL1        0.0785
     24 C          62.6866   84.4387    6.6623 C.ar    1  UNL1        0.1135
     25 N          62.9693   85.3477    7.8216 N.ar    1  UNL1       -0.2410
     26 C          61.8527   86.1212    8.4578 C.ar    1  UNL1        0.1004
     27 C          60.4534   85.9857    7.9348 C.ar    1  UNL1        0.1175
     28 N          60.1707   85.0767    6.7756 N.ar    1  UNL1       -0.2450
     29 C          67.1369   93.6885   13.4608 C.3     1  UNL1        0.0714
     30 C          67.9958   92.8560   14.3660 C.3     1  UNL1        0.0922
     31 C          67.6465   93.7495   15.5191 C.3     1  UNL1        0.0294
     32 C          68.3450   91.9626   13.2128 C.3     1  UNL1        0.0294
     33 O          68.8547   92.0235   15.2711 O.3     1  UNL1       -0.3866
     34 H          68.8269   92.3888   16.1693 H       1  UNL1        0.2102
@<TRIPOS>BOND
     1    22    23    1
     2    23    24   ar
     3    24    25   ar
     4    25    26   ar
     5    26    16    1
     6    16    17   ar
     7    17    18   ar
     8    18    19   ar
     9    19    14    1
    10    14    15    1
    11    14     1    1
    12     1     2    1
    13     2     3    1
    14     3     4    1
    15     4    29    1
    16    29    30    1
    17    30    31    1
    18    30    32    1
    19    30    33    1
    20     4     8    1
    21     8     9   ar
    22     9    10   ar
    23    10    11   ar
    24    11    12   ar
    25    12    13   ar
    26     4     5    1
    27     5     6    1
    28     6     7    2
    29    19    20   ar
    30    20    21   ar
    31    26    27   ar
    32    27    28   ar
    33    28    23   ar
    34    21    16   ar
    35     6     1   am
    36    13     8   ar
    37    33    34    1
@<TRIPOS>MOLECULE
*****
 34 37 0 0 0
SMALL
GASTEIGER

@<TRIPOS>ATOM
      1 N          60.5626   93.8852   -0.5965 N.am    1  UNL1       -0.2438
      2 C          60.8090   93.3891   -1.9905 C.3     1  UNL1        0.1009
      3 C          62.1427   93.6104   -2.6406 C.3     1  UNL1        0.0662
      4 C          63.2298   94.3277   -1.8966 C.3     1  UNL1        0.1600
      5 O          62.9834   94.8239   -0.5027 O.3     1  UNL1       -0.4374
      6 C          61.6498   94.6026    0.1474 C.2     1  UNL1        0.4051
      7 O          61.4034   95.0988    1.5413 O.2     1  UNL1       -0.2262
      8 C          63.9394   94.0468   -3.1880 C.ar    1  UNL1        0.0138
      9 C          64.4246   95.1823   -4.0396 C.ar    1  UNL1       -0.0010
     10 C          65.1342   94.9014   -5.3309 C.ar    1  UNL1       -0.0002
     11 C          65.3585   93.4850   -5.7707 C.ar    1  UNL1       -0.0000
     12 C          64.8733   92.3495   -4.9193 C.ar    1  UNL1       -0.0002
     13 C          64.1637   92.6303   -3.6278 C.ar    1  UNL1       -0.0010
     14 C          59.2290   93.6640    0.0535 C.3     1  UNL1        0.1011
     15 C          59.1495   92.9914    1.3919 C.3     1  UNL1        0.0265
     16 C          55.4670   95.0181   -2.0114 C.ar    1  UNL1        0.0192
     17 C          56.4430   96.0312   -1.4906 C.ar    1  UNL1        0.0013
     18 C          57.6970   95.5798   -0.8023 C.ar    1  UNL1       -0.0026
     19 C          57.9750   94.1154   -0.6348 C.ar    1  UNL1       -0.0042
     20 C          56.9991   93.1024   -1.1555 C.ar    1  UNL1       -0.0026
     21 C          55.7451   93.5537   -1.8438 C.ar    1  UNL1        0.0013
     22 C          50.4511   96.8236   -4.7646 C.3     1  UNL1        0.0538
     23 C          51.7050   96.3723   -4.0763 C.ar    1  UNL1        0.0785
     24 C          51.6845   96.0597   -2.6094 C.ar    1  UNL1        0.1135
     25 N          52.9385   95.6083   -1.9211 N.ar    1  UNL1       -0.2410
     26 C          54.2130   95.4695   -2.6997 C.ar    1  UNL1        0.1004
     27 C          54.2336   95.7821   -4.1666 C.ar    1  UNL1        0.1175
     28 N          52.9796   96.2335   -4.8548 N.ar    1  UNL1       -0.2450
     29 C          64.5634   94.9475   -1.6012 C.3     1  UNL1        0.0714
     30 C          64.8649   95.4570   -0.2229 C.3     1  UNL1        0.0922
     31 C          65.2033   94.0637    0.2181 C.3     1  UNL1        0.0294
     32 C          64.5264   96.8502   -0.6639 C.3     1  UNL1        0.0294
     33 O          65.1663   95.9664    1.1554 O.3     1  UNL1       -0.3866
     34 H          65.4376   95.2268    1.7213 H       1  UNL1        0.2102
@<TRIPOS>BOND
     1    22    23    1
     2    23    24   ar
     3    24    25   ar
     4    25    26   ar
     5    26    16    1
     6    16    17   ar
     7    17    18   ar
     8    18    19   ar
     9    19    14    1
    10    14    15    1
    11    14     1    1
    12     1     2    1
    13     2     3    1
    14     3     4    1
    15     4    29    1
    16    29    30    1
    17    30    31    1
    18    30    32    1
    19    30    33    1
    20     4     8    1
    21     8     9   ar
    22     9    10   ar
    23    10    11   ar
    24    11    12   ar
    25    12    13   ar
    26     4     5    1
    27     5     6    1
    28     6     7    2
    29    19    20   ar
    30    20    21   ar
    31    26    27   ar
    32    27    28   ar
    33    28    23   ar
    34    21    16   ar
    35     6     1   am
    36    13     8   ar
    37    33    34    1
