@<TRIPOS>MOLECULE
*****
 24 27 0 0 0
SMALL
GASTEIGER

@<TRIPOS>ATOM
      1 O          62.7823   90.8177   10.1620 O.2     1  UNL1       -0.2526
      2 C          63.1466   90.2983   11.5213 C.2     1  UNL1        0.3039
      3 N          62.3957   89.1395   12.1073 N.am    1  UNL1       -0.2901
      4 N          64.2616   90.9377   12.2944 N.am    1  UNL1       -0.2642
      5 C          65.0124   92.0965   11.7083 C.3     1  UNL1        0.0954
      6 C          66.1275   92.7359   12.4814 C.3     1  UNL1        0.0293
      7 C          66.4917   92.2165   13.8407 C.3     1  UNL1        0.0654
      8 C          65.7409   91.0578   14.4268 C.3     1  UNL1        0.0293
      9 C          64.6259   90.4184   13.6537 C.3     1  UNL1        0.0954
     10 H          62.6348   88.7986   12.9995 H       1  UNL1        0.1509
     11 C          67.6068   92.8560   14.6139 C.ar    1  UNL1        0.1806
     12 N          67.4513   93.7672   15.7952 N.ar    1  UNL1       -0.1871
     13 C          68.8215   94.1708   16.2529 C.ar    1  UNL1        0.3161
     14 O          69.8239   93.5091   15.3545 O.2     1  UNL1       -0.3277
     15 N          69.0732   92.6964   14.3415 N.ar    1  UNL1       -0.0600
     16 C          61.2807   88.5001   11.3342 C.3     1  UNL1        0.0774
     17 C          59.8134   88.3040   11.0923 C.3     1  UNL1        0.0259
     18 C          60.8167   87.5887   10.2369 C.3     1  UNL1        0.0420
     19 C          61.1281   86.6494    9.1096 C.ar    1  UNL1       -0.0208
     20 C          60.0648   86.2960    8.1124 C.ar    1  UNL1       -0.0042
     21 C          60.3762   85.3567    6.9851 C.ar    1  UNL1       -0.0003
     22 C          61.7510   84.7709    6.8550 C.ar    1  UNL1       -0.0000
     23 C          62.8143   85.1243    7.8522 C.ar    1  UNL1       -0.0003
     24 C          62.5028   86.0636    8.9795 C.ar    1  UNL1       -0.0042
@<TRIPOS>BOND
     1     1     2    2
     2     2     3   am
     3     3    16    1
     4    16    17    1
     5    17    18    1
     6    18    19    1
     7    19    20   ar
     8    20    21   ar
     9    21    22   ar
    10    22    23   ar
    11    23    24   ar
    12     2     4   am
    13     4     5    1
    14     5     6    1
    15     6     7    1
    16     7    11    1
    17    11    12   ar
    18    12    13   ar
    19    13    14   ar
    20    14    15   ar
    21     7     8    1
    22     8     9    1
    23    18    16    1
    24    24    19   ar
    25     9     4    1
    26    15    11   ar
    27     3    10    1
@<TRIPOS>MOLECULE
*****
 24 27 0 0 0
SMALL
GASTEIGER

@<TRIPOS>ATOM
      1 O          62.9443   89.0564   13.0610 O.2     1  UNL1       -0.2526
      2 C          63.9125   90.0052   13.7032 C.2     1  UNL1        0.3039
      3 N          64.3092   89.8154   15.1373 N.am    1  UNL1       -0.2901
      4 N          64.4840   91.1438   12.9114 N.am    1  UNL1       -0.2642
      5 C          64.0872   91.3336   11.4772 C.3     1  UNL1        0.0954
      6 C          64.6586   92.4722   10.6854 C.3     1  UNL1        0.0293
      7 C          65.6268   93.4211   11.3277 C.3     1  UNL1        0.0654
      8 C          66.0235   93.2312   12.7617 C.3     1  UNL1        0.0293
      9 C          65.4521   92.0926   13.5536 C.3     1  UNL1        0.0954
     10 H          64.9447   90.4381   15.5588 H       1  UNL1        0.1509
     11 C          66.1982   94.5597   10.5358 C.ar    1  UNL1        0.1806
     12 N          65.5039   95.8519   10.2226 N.ar    1  UNL1       -0.1871
     13 C          66.4408   96.6968    9.4114 C.ar    1  UNL1        0.3161
     14 O          67.7143   95.9268    9.2231 O.2     1  UNL1       -0.3277
     15 N          67.5643   94.6060    9.9181 N.ar    1  UNL1       -0.0600
     16 C          63.7378   88.6768   15.9291 C.3     1  UNL1        0.0774
     17 C          63.0105   88.1728   17.1403 C.3     1  UNL1        0.0259
     18 C          63.4754   87.2087   16.0894 C.3     1  UNL1        0.0420
     19 C          63.5923   85.8044   15.5752 C.ar    1  UNL1       -0.0208
     20 C          62.5344   84.7939   15.9064 C.ar    1  UNL1       -0.0042
     21 C          62.6513   83.3897   15.3922 C.ar    1  UNL1       -0.0003
     22 C          63.8261   82.9959   14.5468 C.ar    1  UNL1       -0.0000
     23 C          64.8841   84.0064   14.2157 C.ar    1  UNL1       -0.0003
     24 C          64.7671   85.4106   14.7299 C.ar    1  UNL1       -0.0042
@<TRIPOS>BOND
     1     1     2    2
     2     2     3   am
     3     3    16    1
     4    16    17    1
     5    17    18    1
     6    18    19    1
     7    19    20   ar
     8    20    21   ar
     9    21    22   ar
    10    22    23   ar
    11    23    24   ar
    12     2     4   am
    13     4     5    1
    14     5     6    1
    15     6     7    1
    16     7    11    1
    17    11    12   ar
    18    12    13   ar
    19    13    14   ar
    20    14    15   ar
    21     7     8    1
    22     8     9    1
    23    18    16    1
    24    24    19   ar
    25     9     4    1
    26    15    11   ar
    27     3    10    1
@<TRIPOS>MOLECULE
*****
 24 27 0 0 0
SMALL
GASTEIGER

@<TRIPOS>ATOM
      1 O          64.5880   88.3079   14.8927 O.2     1  UNL1       -0.2526
      2 C          63.9190   87.7707   13.6623 C.2     1  UNL1        0.3039
      3 N          63.5366   88.7011   12.5496 N.am    1  UNL1       -0.2901
      4 N          63.6324   86.3030   13.5445 N.am    1  UNL1       -0.2642
      5 C          64.0148   85.3725   14.6572 C.3     1  UNL1        0.0954
      6 C          63.7283   83.9049   14.5395 C.3     1  UNL1        0.0293
      7 C          63.0592   83.3677   13.3090 C.3     1  UNL1        0.0654
      8 C          62.6769   84.2982   12.1964 C.3     1  UNL1        0.0293
      9 C          62.9634   85.7658   12.3141 C.3     1  UNL1        0.0954
     10 H          63.0975   88.3486   11.7421 H       1  UNL1        0.1509
     11 C          62.7727   81.9001   13.1913 C.ar    1  UNL1        0.1806
     12 N          62.2792   81.0071   14.2908 N.ar    1  UNL1       -0.1871
     13 C          62.1308   79.6228   13.7324 C.ar    1  UNL1        0.3161
     14 O          62.5326   79.6603   12.2877 O.2     1  UNL1       -0.3277
     15 N          62.9293   81.0677   11.9533 N.ar    1  UNL1       -0.0600
     16 C          63.8232   90.1688   12.6674 C.3     1  UNL1        0.0774
     17 C          63.5011   91.5883   12.3054 C.3     1  UNL1        0.0259
     18 C          64.6416   91.2912   13.2333 C.3     1  UNL1        0.0420
     19 C          65.7726   91.7677   14.0958 C.ar    1  UNL1       -0.0208
     20 C          65.5226   92.1237   15.5313 C.ar    1  UNL1       -0.0042
     21 C          66.6536   92.6002   16.3938 C.ar    1  UNL1       -0.0003
     22 C          68.0346   92.7206   15.8207 C.ar    1  UNL1       -0.0000
     23 C          68.2846   92.3646   14.3852 C.ar    1  UNL1       -0.0003
     24 C          67.1536   91.8881   13.5228 C.ar    1  UNL1       -0.0042
@<TRIPOS>BOND
     1     1     2    2
     2     2     3   am
     3     3    16    1
     4    16    17    1
     5    17    18    1
     6    18    19    1
     7    19    20   ar
     8    20    21   ar
     9    21    22   ar
    10    22    23   ar
    11    23    24   ar
    12     2     4   am
    13     4     5    1
    14     5     6    1
    15     6     7    1
    16     7    11    1
    17    11    12   ar
    18    12    13   ar
    19    13    14   ar
    20    14    15   ar
    21     7     8    1
    22     8     9    1
    23    18    16    1
    24    24    19   ar
    25     9     4    1
    26    15    11   ar
    27     3    10    1
@<TRIPOS>MOLECULE
*****
 24 27 0 0 0
SMALL
GASTEIGER

@<TRIPOS>ATOM
      1 O          64.1151   85.9962   15.9903 O.2     1  UNL1       -0.2526
      2 C          63.8363   86.0231   14.5167 C.2     1  UNL1        0.3039
      3 N          63.7605   87.3339   13.7915 N.am    1  UNL1       -0.2901
      4 N          63.6334   84.7391   13.7682 N.am    1  UNL1       -0.2642
      5 C          63.7093   83.4282   14.4935 C.3     1  UNL1        0.0954
      6 C          63.5064   82.1442   13.7450 C.3     1  UNL1        0.0293
      7 C          63.2276   82.1711   12.2713 C.3     1  UNL1        0.0654
      8 C          63.1518   83.4819   11.5462 C.3     1  UNL1        0.0293
      9 C          63.3547   84.7659   12.2946 C.3     1  UNL1        0.0954
     10 H          63.5775   87.3516   12.8243 H       1  UNL1        0.1509
     11 C          63.0247   80.8871   11.5229 C.ar    1  UNL1        0.1806
     12 N          63.1154   80.7093   10.0362 N.ar    1  UNL1       -0.1871
     13 C          62.8422   79.2677    9.7242 C.ar    1  UNL1        0.3161
     14 O          62.5827   78.5546   11.0181 O.2     1  UNL1       -0.3277
     15 N          62.6954   79.5554   12.1297 N.ar    1  UNL1       -0.0600
     16 C          63.9634   88.6179   14.5399 C.3     1  UNL1        0.0774
     17 C          63.8152   89.4282   15.7935 C.3     1  UNL1        0.0259
     18 C          64.4630   90.0316   14.5827 C.3     1  UNL1        0.0420
     19 C          65.1255   91.1962   13.9082 C.ar    1  UNL1       -0.0208
     20 C          66.2329   91.9335   14.6011 C.ar    1  UNL1       -0.0042
     21 C          66.8953   93.0981   13.9266 C.ar    1  UNL1       -0.0003
     22 C          66.4504   93.5253   12.5593 C.ar    1  UNL1       -0.0000
     23 C          65.3431   92.7880   11.8664 C.ar    1  UNL1       -0.0003
     24 C          64.6807   91.6234   12.5409 C.ar    1  UNL1       -0.0042
@<TRIPOS>BOND
     1     1     2    2
     2     2     3   am
     3     3    16    1
     4    16    17    1
     5    17    18    1
     6    18    19    1
     7    19    20   ar
     8    20    21   ar
     9    21    22   ar
    10    22    23   ar
    11    23    24   ar
    12     2     4   am
    13     4     5    1
    14     5     6    1
    15     6     7    1
    16     7    11    1
    17    11    12   ar
    18    12    13   ar
    19    13    14   ar
    20    14    15   ar
    21     7     8    1
    22     8     9    1
    23    18    16    1
    24    24    19   ar
    25     9     4    1
    26    15    11   ar
    27     3    10    1
@<TRIPOS>MOLECULE
*****
 24 27 0 0 0
SMALL
GASTEIGER

@<TRIPOS>ATOM
      1 O          61.6151   84.7914   10.2064 O.2     1  UNL1       -0.2526
      2 C          61.6326   86.2759   10.4215 C.2     1  UNL1        0.3039
      3 N          62.3026   86.8502   11.6343 N.am    1  UNL1       -0.2901
      4 N          60.9799   87.1859    9.4236 N.am    1  UNL1       -0.2642
      5 C          60.3098   86.6115    8.2107 C.3     1  UNL1        0.0954
      6 C          59.6571   87.5216    7.2128 C.3     1  UNL1        0.0293
      7 C          59.6745   89.0061    7.4278 C.3     1  UNL1        0.0654
      8 C          60.3446   89.5804    8.6407 C.3     1  UNL1        0.0293
      9 C          60.9973   88.6703    9.6386 C.3     1  UNL1        0.0954
     10 H          62.3141   87.8245   11.7755 H       1  UNL1        0.1509
     11 C          59.0218   89.9161    6.4299 C.ar    1  UNL1        0.1806
     12 N          59.7296   90.8481    5.4916 N.ar    1  UNL1       -0.1871
     13 C          58.6920   91.5620    4.6769 C.ar    1  UNL1        0.3161
     14 O          57.3429   91.0712    5.1117 O.2     1  UNL1       -0.3277
     15 N          57.5468   90.0540    6.1951 N.ar    1  UNL1       -0.0600
     16 C          62.9553   85.9401   12.6322 C.3     1  UNL1        0.0774
     17 C          63.8922   85.7357   13.7856 C.3     1  UNL1        0.0259
     18 C          63.1489   84.5683   13.2072 C.3     1  UNL1        0.0420
     19 C          62.8314   83.1022   13.2052 C.ar    1  UNL1       -0.0208
     20 C          63.3137   82.2320   12.0827 C.ar    1  UNL1       -0.0042
     21 C          62.9962   80.7660   12.0808 C.ar    1  UNL1       -0.0003
     22 C          62.1964   80.1703   13.2013 C.ar    1  UNL1       -0.0000
     23 C          61.7141   81.0406   14.3237 C.ar    1  UNL1       -0.0003
     24 C          62.0316   82.5065   14.3257 C.ar    1  UNL1       -0.0042
@<TRIPOS>BOND
     1     1     2    2
     2     2     3   am
     3     3    16    1
     4    16    17    1
     5    17    18    1
     6    18    19    1
     7    19    20   ar
     8    20    21   ar
     9    21    22   ar
    10    22    23   ar
    11    23    24   ar
    12     2     4   am
    13     4     5    1
    14     5     6    1
    15     6     7    1
    16     7    11    1
    17    11    12   ar
    18    12    13   ar
    19    13    14   ar
    20    14    15   ar
    21     7     8    1
    22     8     9    1
    23    18    16    1
    24    24    19   ar
    25     9     4    1
    26    15    11   ar
    27     3    10    1
@<TRIPOS>MOLECULE
*****
 24 27 0 0 0
SMALL
GASTEIGER

@<TRIPOS>ATOM
      1 O          63.6964   88.5755   13.4489 O.2     1  UNL1       -0.2526
      2 C          63.1850   87.7520   12.3042 C.2     1  UNL1        0.3039
      3 N          62.8011   88.4160   11.0151 N.am    1  UNL1       -0.2901
      4 N          63.0575   86.2644   12.4486 N.am    1  UNL1       -0.2642
      5 C          63.4414   85.6004   13.7378 C.3     1  UNL1        0.0954
      6 C          63.3138   84.1128   13.8822 C.3     1  UNL1        0.0293
      7 C          62.8024   83.2892   12.7375 C.3     1  UNL1        0.0654
      8 C          62.4186   83.9532   11.4485 C.3     1  UNL1        0.0293
      9 C          62.5461   85.4408   11.3040 C.3     1  UNL1        0.0954
     10 H          62.4655   87.8754   10.2639 H       1  UNL1        0.1509
     11 C          62.6749   81.8017   12.8820 C.ar    1  UNL1        0.1806
     12 N          62.4107   81.0592   14.1582 N.ar    1  UNL1       -0.1871
     13 C          62.3617   79.5940   13.8406 C.ar    1  UNL1        0.3161
     14 O          62.5956   79.4310   12.3679 O.2     1  UNL1       -0.3277
     15 N          62.7891   80.7954   11.7755 N.ar    1  UNL1       -0.0600
     16 C          62.9286   89.9035   10.8707 C.3     1  UNL1        0.0774
     17 C          62.4799   91.1912   10.2458 C.3     1  UNL1        0.0259
     18 C          63.5982   91.1924   11.2454 C.3     1  UNL1        0.0420
     19 C          64.6306   91.9372   12.0390 C.ar    1  UNL1       -0.0208
     20 C          65.3926   93.0644   11.4075 C.ar    1  UNL1       -0.0042
     21 C          66.4248   93.8091   12.2011 C.ar    1  UNL1       -0.0003
     22 C          66.6950   93.4267   13.6261 C.ar    1  UNL1       -0.0000
     23 C          65.9330   92.2996   14.2576 C.ar    1  UNL1       -0.0003
     24 C          64.9008   91.5548   13.4640 C.ar    1  UNL1       -0.0042
@<TRIPOS>BOND
     1     1     2    2
     2     2     3   am
     3     3    16    1
     4    16    17    1
     5    17    18    1
     6    18    19    1
     7    19    20   ar
     8    20    21   ar
     9    21    22   ar
    10    22    23   ar
    11    23    24   ar
    12     2     4   am
    13     4     5    1
    14     5     6    1
    15     6     7    1
    16     7    11    1
    17    11    12   ar
    18    12    13   ar
    19    13    14   ar
    20    14    15   ar
    21     7     8    1
    22     8     9    1
    23    18    16    1
    24    24    19   ar
    25     9     4    1
    26    15    11   ar
    27     3    10    1
@<TRIPOS>MOLECULE
*****
 24 27 0 0 0
SMALL
GASTEIGER

@<TRIPOS>ATOM
      1 O          63.8792   87.5217   14.2551 O.2     1  UNL1       -0.2526
      2 C          63.4641   88.3359   13.0656 C.2     1  UNL1        0.3039
      3 N          63.5275   89.8334   13.1226 N.am    1  UNL1       -0.2901
      4 N          62.9858   87.6524   11.8190 N.am    1  UNL1       -0.2642
      5 C          62.9224   86.1548   11.7619 C.3     1  UNL1        0.0954
      6 C          62.4440   85.4713   10.5153 C.3     1  UNL1        0.0293
      7 C          62.0290   86.2854    9.3258 C.3     1  UNL1        0.0654
      8 C          62.0923   87.7830    9.3829 C.3     1  UNL1        0.0293
      9 C          62.5707   88.4664   10.6294 C.3     1  UNL1        0.0954
     10 H          63.2551   90.3677   12.3419 H       1  UNL1        0.1509
     11 C          61.5506   85.6019    8.0792 C.ar    1  UNL1        0.1806
     12 N          62.3947   84.7983    7.1349 N.ar    1  UNL1       -0.1871
     13 C          61.5099   84.3018    6.0301 C.ar    1  UNL1        0.3161
     14 O          60.1189   84.7985    6.2916 O.2     1  UNL1       -0.3277
     15 N          60.1441   85.6020    7.5580 N.ar    1  UNL1       -0.0600
     16 C          64.0059   90.5169   14.3692 C.3     1  UNL1        0.0774
     17 C          63.7698   90.9485   15.7862 C.3     1  UNL1        0.0259
     18 C          65.0704   91.2692   15.1113 C.3     1  UNL1        0.0420
     19 C          66.4361   91.8886   15.1500 C.ar    1  UNL1       -0.0208
     20 C          67.4131   91.6201   14.0440 C.ar    1  UNL1       -0.0042
     21 C          68.7786   92.2396   14.0828 C.ar    1  UNL1       -0.0003
     22 C          69.1671   93.1276   15.2276 C.ar    1  UNL1       -0.0000
     23 C          68.1901   93.3961   16.3336 C.ar    1  UNL1       -0.0003
     24 C          66.8246   92.7766   16.2949 C.ar    1  UNL1       -0.0042
@<TRIPOS>BOND
     1     1     2    2
     2     2     3   am
     3     3    16    1
     4    16    17    1
     5    17    18    1
     6    18    19    1
     7    19    20   ar
     8    20    21   ar
     9    21    22   ar
    10    22    23   ar
    11    23    24   ar
    12     2     4   am
    13     4     5    1
    14     5     6    1
    15     6     7    1
    16     7    11    1
    17    11    12   ar
    18    12    13   ar
    19    13    14   ar
    20    14    15   ar
    21     7     8    1
    22     8     9    1
    23    18    16    1
    24    24    19   ar
    25     9     4    1
    26    15    11   ar
    27     3    10    1
@<TRIPOS>MOLECULE
*****
 24 27 0 0 0
SMALL
GASTEIGER

@<TRIPOS>ATOM
      1 O          58.6588   92.4774    4.0585 O.2     1  UNL1       -0.2526
      2 C          60.0910   92.0396    3.9724 C.2     1  UNL1        0.3039
      3 N          60.5903   90.9304    4.8501 N.am    1  UNL1       -0.2901
      4 N          61.0238   92.7110    3.0085 N.am    1  UNL1       -0.2642
      5 C          60.5244   93.8203    2.1308 C.3     1  UNL1        0.0954
      6 C          61.4572   94.4917    1.1669 C.3     1  UNL1        0.0293
      7 C          62.8894   94.0539    1.0808 C.3     1  UNL1        0.0654
      8 C          63.3887   92.9448    1.9584 C.3     1  UNL1        0.0293
      9 C          62.4559   92.2733    2.9223 C.3     1  UNL1        0.0954
     10 H          61.5302   90.6431    4.7935 H       1  UNL1        0.1509
     11 C          63.8222   94.7254    0.1169 C.ar    1  UNL1        0.1806
     12 N          63.5347   95.0256   -1.3244 N.ar    1  UNL1       -0.1871
     13 C          64.7410   95.7003   -1.9070 C.ar    1  UNL1        0.3161
     14 O          65.7742   95.8171   -0.8258 O.2     1  UNL1       -0.3277
     15 N          65.2063   95.2146    0.4250 N.ar    1  UNL1       -0.0600
     16 C          59.6575   90.2589    5.8139 C.3     1  UNL1        0.0774
     17 C          58.2634   89.9809    6.2926 C.3     1  UNL1        0.0259
     18 C          59.4360   89.3740    7.0046 C.3     1  UNL1        0.0420
     19 C          59.9851   88.5128    8.1032 C.ar    1  UNL1       -0.0208
     20 C          60.4579   89.1387    9.3817 C.ar    1  UNL1       -0.0042
     21 C          61.0070   88.2774   10.4802 C.ar    1  UNL1       -0.0003
     22 C          61.0832   86.7902   10.3001 C.ar    1  UNL1       -0.0000
     23 C          60.6103   86.1643    9.0217 C.ar    1  UNL1       -0.0003
     24 C          60.0613   87.0256    7.9232 C.ar    1  UNL1       -0.0042
@<TRIPOS>BOND
     1     1     2    2
     2     2     3   am
     3     3    16    1
     4    16    17    1
     5    17    18    1
     6    18    19    1
     7    19    20   ar
     8    20    21   ar
     9    21    22   ar
    10    22    23   ar
    11    23    24   ar
    12     2     4   am
    13     4     5    1
    14     5     6    1
    15     6     7    1
    16     7    11    1
    17    11    12   ar
    18    12    13   ar
    19    13    14   ar
    20    14    15   ar
    21     7     8    1
    22     8     9    1
    23    18    16    1
    24    24    19   ar
    25     9     4    1
    26    15    11   ar
    27     3    10    1
@<TRIPOS>MOLECULE
*****
 24 27 0 0 0
SMALL
GASTEIGER

@<TRIPOS>ATOM
      1 O          64.5517   88.4919   14.3910 O.2     1  UNL1       -0.2526
      2 C          63.6519   89.3505   13.5522 C.2     1  UNL1        0.3039
      3 N          63.5195   90.8143   13.8514 N.am    1  UNL1       -0.2901
      4 N          62.8847   88.7451   12.4143 N.am    1  UNL1       -0.2642
      5 C          63.0172   87.2812   12.1151 C.3     1  UNL1        0.0954
      6 C          62.2499   86.6758   10.9772 C.3     1  UNL1        0.0293
      7 C          61.3502   87.5344   10.1385 C.3     1  UNL1        0.0654
      8 C          61.2177   88.9982   10.4377 C.3     1  UNL1        0.0293
      9 C          61.9850   89.6036   11.5756 C.3     1  UNL1        0.0954
     10 H          62.9289   91.3778   13.3010 H       1  UNL1        0.1509
     11 C          60.5829   86.9290    9.0005 C.ar    1  UNL1        0.1806
     12 N          59.2033   87.3202    8.5604 N.ar    1  UNL1       -0.1871
     13 C          58.8283   86.4591    7.3908 C.ar    1  UNL1        0.3161
     14 O          59.9761   85.5358    7.1081 O.2     1  UNL1       -0.3277
     15 N          61.0605   85.8262    8.1030 N.ar    1  UNL1       -0.0600
     16 C          64.2867   91.4197   14.9893 C.3     1  UNL1        0.0774
     17 C          64.3395   91.9064   16.4072 C.3     1  UNL1        0.0259
     18 C          65.5628   91.9815   15.5424 C.3     1  UNL1        0.0420
     19 C          67.0059   92.3492   15.3624 C.ar    1  UNL1       -0.0208
     20 C          67.6425   93.3564   16.2735 C.ar    1  UNL1       -0.0042
     21 C          69.0855   93.7241   16.0935 C.ar    1  UNL1       -0.0003
     22 C          69.8920   93.0844   15.0024 C.ar    1  UNL1       -0.0000
     23 C          69.2554   92.0771   14.0913 C.ar    1  UNL1       -0.0003
     24 C          67.8124   91.7095   14.2713 C.ar    1  UNL1       -0.0042
@<TRIPOS>BOND
     1     1     2    2
     2     2     3   am
     3     3    16    1
     4    16    17    1
     5    17    18    1
     6    18    19    1
     7    19    20   ar
     8    20    21   ar
     9    21    22   ar
    10    22    23   ar
    11    23    24   ar
    12     2     4   am
    13     4     5    1
    14     5     6    1
    15     6     7    1
    16     7    11    1
    17    11    12   ar
    18    12    13   ar
    19    13    14   ar
    20    14    15   ar
    21     7     8    1
    22     8     9    1
    23    18    16    1
    24    24    19   ar
    25     9     4    1
    26    15    11   ar
    27     3    10    1
