@<TRIPOS>MOLECULE
*****
 27 30 0 0 0
SMALL
GASTEIGER

@<TRIPOS>ATOM
      1 C          65.1046   92.0615   12.7492 C.ar    1  UNL1        0.1219
      2 C          64.3748   91.0020   13.5204 C.ar    1  UNL1        0.0199
      3 C          63.3746   90.1247   12.8274 C.ar    1  UNL1        0.0011
      4 C          63.1043   90.3070   11.3633 C.ar    1  UNL1       -0.0029
      5 C          63.8342   91.3665   10.5921 C.ar    1  UNL1        0.0011
      6 C          64.8343   92.2438   11.2850 C.ar    1  UNL1        0.0199
      7 C          62.1041   89.4298   10.6703 C.2     1  UNL1       -0.0027
      8 C          61.1148   90.0295    9.7156 C.2     1  UNL1        0.0471
      9 C          60.1147   89.1522    9.0227 C.2     1  UNL1        0.2354
     10 N          60.1040   87.6753    9.2844 N.2     1  UNL1       -0.0341
     11 C          61.0933   87.0756   10.2391 C.2     1  UNL1        0.3588
     12 N          61.3216   85.6643   10.6930 N.2     1  UNL1       -0.0428
     13 C          62.4629   85.6692   11.6664 C.2     1  UNL1        0.1669
     14 C          62.9399   87.0836   11.8142 C.2     1  UNL1        0.0323
     15 C          62.0934   87.9528   10.9321 C.3     1  UNL1        0.1596
     16 C          63.0279   84.4702   12.3688 C.3     1  UNL1        0.0658
     17 C          64.0572   83.8599   13.2732 C.3     1  UNL1        0.0087
     18 C          62.9772   83.0039   12.6808 C.3     1  UNL1        0.0087
     19 O          65.3605   92.7674   14.7331 O.2     1  UNL1       -0.1530
     20 S          66.1047   92.9387   13.4421 S.O2    1  UNL1        0.0603
     21 O          66.8489   93.1100   12.1511 O.2     1  UNL1       -0.1530
     22 N          67.1048   93.8160   14.1350 N.3     1  UNL1       -0.1768
     23 H          66.6058   94.6551   14.4303 H       1  UNL1        0.1489
     24 C          67.8441   93.3064   15.3366 C.3     1  UNL1        0.1231
     25 C          69.0900   92.4899   15.1601 C.3     1  UNL1        0.1559
     26 O          69.5396   92.0955   13.7845 O.3     1  UNL1       -0.3805
     27 H          68.8913   91.4889   13.3939 H       1  UNL1        0.2105
@<TRIPOS>BOND
     1    19    20    2
     2    20    21    2
     3    20    22    1
     4    22    24    1
     5    24    25    1
     6    25    26    1
     7    20     1    1
     8     1     2   ar
     9     2     3   ar
    10     3     4   ar
    11     4     7    1
    12     7     8    2
    13     8     9    1
    14     9    10    2
    15    10    11    1
    16    11    12    2
    17    12    13    1
    18    13    16    1
    19    16    17    1
    20    17    18    1
    21    13    14    2
    22    14    15    1
    23     4     5   ar
    24     5     6   ar
    25     6     1   ar
    26    15     7    1
    27    15    11    1
    28    18    16    1
    29    22    23    1
    30    26    27    1
@<TRIPOS>MOLECULE
*****
 27 30 0 0 0
SMALL
GASTEIGER

@<TRIPOS>ATOM
      1 C          61.8288   88.4426   10.6428 C.ar    1  UNL1        0.1219
      2 C          62.6355   87.8716   11.7711 C.ar    1  UNL1        0.0199
      3 C          63.4906   88.7721   12.6125 C.ar    1  UNL1        0.0011
      4 C          63.5389   90.2436   12.3256 C.ar    1  UNL1       -0.0029
      5 C          62.7321   90.8146   11.1973 C.ar    1  UNL1        0.0011
      6 C          61.8771   89.9141   10.3559 C.ar    1  UNL1        0.0199
      7 C          64.3940   91.1442   13.1670 C.2     1  UNL1       -0.0027
      8 C          64.4043   90.9897   14.6590 C.2     1  UNL1        0.0471
      9 C          65.2594   91.8902   15.5003 C.2     1  UNL1        0.2354
     10 N          66.1041   92.9453   14.8497 N.2     1  UNL1       -0.0341
     11 C          66.0937   93.0998   13.3577 C.2     1  UNL1        0.3588
     12 N          66.8161   94.0422   12.4412 N.2     1  UNL1       -0.0428
     13 C          66.4075   93.7241   11.0334 C.2     1  UNL1        0.1669
     14 C          65.4326   92.5851   11.0798 C.2     1  UNL1        0.0323
     15 C          65.2387   92.1992   12.5164 C.3     1  UNL1        0.1596
     16 C          66.8892   94.4225    9.7963 C.3     1  UNL1        0.0658
     17 C          67.5346   94.3708    8.4433 C.3     1  UNL1        0.0087
     18 C          67.0782   95.6838    9.0068 C.3     1  UNL1        0.0087
     19 O          59.7626   87.9666   10.5779 O.2     1  UNL1       -0.1530
     20 S          60.9737   87.5421    9.8014 S.O2    1  UNL1        0.0603
     21 O          62.1848   87.1176    9.0249 O.2     1  UNL1       -0.1530
     22 N          60.1187   86.6416    8.9600 N.3     1  UNL1       -0.1768
     23 H          59.4625   86.1834    9.5923 H       1  UNL1        0.1489
     24 C          59.3082   87.2133    7.8347 C.3     1  UNL1        0.1231
     25 C          59.4935   88.6456    7.4291 C.3     1  UNL1        0.1559
     26 O          58.6587   89.2269    6.3268 O.3     1  UNL1       -0.3805
     27 H          58.8803   88.7910    5.4891 H       1  UNL1        0.2105
@<TRIPOS>BOND
     1    19    20    2
     2    20    21    2
     3    20    22    1
     4    22    24    1
     5    24    25    1
     6    25    26    1
     7    20     1    1
     8     1     2   ar
     9     2     3   ar
    10     3     4   ar
    11     4     7    1
    12     7     8    2
    13     8     9    1
    14     9    10    2
    15    10    11    1
    16    11    12    2
    17    12    13    1
    18    13    16    1
    19    16    17    1
    20    17    18    1
    21    13    14    2
    22    14    15    1
    23     4     5   ar
    24     5     6   ar
    25     6     1   ar
    26    15     7    1
    27    15    11    1
    28    18    16    1
    29    22    23    1
    30    26    27    1
@<TRIPOS>MOLECULE
*****
 27 30 0 0 0
SMALL
GASTEIGER

@<TRIPOS>ATOM
      1 C          61.4742   88.5021   10.5642 C.ar    1  UNL1        0.1219
      2 C          62.4118   87.8565   11.5410 C.ar    1  UNL1        0.0199
      3 C          63.3222   88.7043   12.3792 C.ar    1  UNL1        0.0011
      4 C          63.2949   90.1976   12.2406 C.ar    1  UNL1       -0.0029
      5 C          62.3573   90.8432   11.2639 C.ar    1  UNL1        0.0011
      6 C          61.4469   89.9955   10.4257 C.ar    1  UNL1        0.0199
      7 C          64.2053   91.0454   13.0788 C.2     1  UNL1       -0.0027
      8 C          64.2028   90.8992   14.5716 C.2     1  UNL1        0.0471
      9 C          65.1131   91.7470   15.4098 C.2     1  UNL1        0.2354
     10 N          66.0260   92.7409   14.7551 N.2     1  UNL1       -0.0341
     11 C          66.0286   92.8871   13.2622 C.2     1  UNL1        0.3588
     12 N          66.8126   93.7751   12.3420 N.2     1  UNL1       -0.0428
     13 C          66.3867   93.4761   10.9351 C.2     1  UNL1        0.1669
     14 C          65.3396   92.4034   10.9858 C.2     1  UNL1        0.0323
     15 C          65.1182   92.0393   12.4241 C.3     1  UNL1        0.1596
     16 C          66.9153   94.1344    9.6952 C.3     1  UNL1        0.0658
     17 C          66.8378   95.2275    8.6709 C.3     1  UNL1        0.0087
     18 C          67.9083   94.1815    8.5719 C.3     1  UNL1        0.0087
     19 O          60.2318   88.8476    8.8799 O.2     1  UNL1       -0.1530
     20 S          60.5638   87.6544    9.7260 S.O2    1  UNL1        0.0603
     21 O          60.8958   86.4612   10.5722 O.2     1  UNL1       -0.1530
     22 N          59.6535   86.8067    8.8879 N.3     1  UNL1       -0.1768
     23 H          58.7681   87.3080    8.8156 H       1  UNL1        0.1489
     24 C          60.0532   86.4305    7.4919 C.3     1  UNL1        0.1231
     25 C          61.1097   85.3892    7.2692 C.3     1  UNL1        0.1559
     26 O          60.9507   84.3830    6.1681 O.3     1  UNL1       -0.3805
     27 H          60.1942   83.8078    6.3625 H       1  UNL1        0.2105
@<TRIPOS>BOND
     1    19    20    2
     2    20    21    2
     3    20    22    1
     4    22    24    1
     5    24    25    1
     6    25    26    1
     7    20     1    1
     8     1     2   ar
     9     2     3   ar
    10     3     4   ar
    11     4     7    1
    12     7     8    2
    13     8     9    1
    14     9    10    2
    15    10    11    1
    16    11    12    2
    17    12    13    1
    18    13    16    1
    19    16    17    1
    20    17    18    1
    21    13    14    2
    22    14    15    1
    23     4     5   ar
    24     5     6   ar
    25     6     1   ar
    26    15     7    1
    27    15    11    1
    28    18    16    1
    29    22    23    1
    30    26    27    1
@<TRIPOS>MOLECULE
*****
 27 30 0 0 0
SMALL
GASTEIGER

@<TRIPOS>ATOM
      1 C          63.5057   83.8673   13.5866 C.ar    1  UNL1        0.1219
      2 C          62.7474   84.3630   12.3911 C.ar    1  UNL1        0.0199
      3 C          62.7072   85.8308   12.0843 C.ar    1  UNL1        0.0011
      4 C          63.4253   86.8027   12.9729 C.ar    1  UNL1       -0.0029
      5 C          64.1836   86.3070   14.1683 C.ar    1  UNL1        0.0011
      6 C          64.2238   84.8393   14.4752 C.ar    1  UNL1        0.0199
      7 C          63.3851   88.2705   12.6660 C.2     1  UNL1       -0.0027
      8 C          64.1669   89.2345   13.5083 C.2     1  UNL1        0.0471
      9 C          64.1267   90.7022   13.2014 C.2     1  UNL1        0.2354
     10 N          63.3046   91.2059   12.0523 N.2     1  UNL1       -0.0341
     11 C          62.5228   90.2419   11.2100 C.2     1  UNL1        0.3588
     12 N          61.6297   90.4427   10.0218 N.2     1  UNL1       -0.0428
     13 C          61.1179   89.0991    9.5942 C.2     1  UNL1        0.1669
     14 C          61.6947   88.0679   10.5183 C.2     1  UNL1        0.0323
     15 C          62.5630   88.7742   11.5169 C.3     1  UNL1        0.1596
     16 C          60.1918   88.8333    8.4445 C.3     1  UNL1        0.0658
     17 C          59.2461   87.9199    7.7225 C.3     1  UNL1        0.0087
     18 C          59.5336   89.2865    7.1750 C.3     1  UNL1        0.0087
     19 O          63.2816   82.6948   15.3401 O.2     1  UNL1       -0.1530
     20 S          63.5459   82.3996   13.8935 S.O2    1  UNL1        0.0603
     21 O          63.8102   82.1043   12.4468 O.2     1  UNL1       -0.1530
     22 N          63.5861   80.9319   14.2003 N.3     1  UNL1       -0.1768
     23 H          63.8025   80.8445   15.1933 H       1  UNL1        0.1489
     24 C          62.3796   80.0786   13.9434 C.3     1  UNL1        0.1231
     25 C          61.0306   80.7153   13.7853 C.3     1  UNL1        0.1559
     26 O          59.8440   80.1472   14.5061 O.3     1  UNL1       -0.3805
     27 H          59.6478   79.2629   14.1590 H       1  UNL1        0.2105
@<TRIPOS>BOND
     1    19    20    2
     2    20    21    2
     3    20    22    1
     4    22    24    1
     5    24    25    1
     6    25    26    1
     7    20     1    1
     8     1     2   ar
     9     2     3   ar
    10     3     4   ar
    11     4     7    1
    12     7     8    2
    13     8     9    1
    14     9    10    2
    15    10    11    1
    16    11    12    2
    17    12    13    1
    18    13    16    1
    19    16    17    1
    20    17    18    1
    21    13    14    2
    22    14    15    1
    23     4     5   ar
    24     5     6   ar
    25     6     1   ar
    26    15     7    1
    27    15    11    1
    28    18    16    1
    29    22    23    1
    30    26    27    1
@<TRIPOS>MOLECULE
*****
 27 30 0 0 0
SMALL
GASTEIGER

@<TRIPOS>ATOM
      1 C          63.3748   84.3110   13.4034 C.ar    1  UNL1        0.1219
      2 C          62.6004   84.5234   12.1364 C.ar    1  UNL1        0.0199
      3 C          62.4162   85.9096   11.5934 C.ar    1  UNL1        0.0011
      4 C          63.0062   87.0832   12.3175 C.ar    1  UNL1       -0.0029
      5 C          63.7806   86.8709   13.5845 C.ar    1  UNL1        0.0011
      6 C          63.9649   85.4848   14.1274 C.ar    1  UNL1        0.0199
      7 C          62.8220   88.4694   11.7745 C.2     1  UNL1       -0.0027
      8 C          61.9191   88.7006   10.5992 C.2     1  UNL1        0.0471
      9 C          61.7349   90.0867   10.0563 C.2     1  UNL1        0.2354
     10 N          62.4535   91.2415   10.6887 N.2     1  UNL1       -0.0341
     11 C          63.3563   91.0103   11.8640 C.2     1  UNL1        0.3588
     12 N          64.1897   91.9457   12.6889 N.2     1  UNL1       -0.0428
     13 C          64.8890   91.1378   13.7416 C.2     1  UNL1        0.1669
     14 C          64.4879   89.7030   13.5674 C.2     1  UNL1        0.0323
     15 C          63.5406   89.6242   12.4069 C.3     1  UNL1        0.1596
     16 C          65.8252   91.6711   14.7853 C.3     1  UNL1        0.0658
     17 C          66.0637   92.4849   16.0225 C.3     1  UNL1        0.0087
     18 C          67.2081   91.7809   15.3558 C.3     1  UNL1        0.0087
     19 O          62.8128   83.3124   15.1885 O.2     1  UNL1       -0.1530
     20 S          63.5590   82.9250   13.9464 S.O2    1  UNL1        0.0603
     21 O          64.3053   82.5376   12.7042 O.2     1  UNL1       -0.1530
     22 N          63.7433   81.5389   14.4894 N.3     1  UNL1       -0.1768
     23 H          63.3444   81.5350   15.4281 H       1  UNL1        0.1489
     24 C          63.1553   80.3650   13.7641 C.3     1  UNL1        0.1231
     25 C          61.6662   80.2079   13.6746 C.3     1  UNL1        0.1559
     26 O          60.7690   81.0785   14.5035 O.3     1  UNL1       -0.3805
     27 H          60.8977   80.8738   15.4428 H       1  UNL1        0.2105
@<TRIPOS>BOND
     1    19    20    2
     2    20    21    2
     3    20    22    1
     4    22    24    1
     5    24    25    1
     6    25    26    1
     7    20     1    1
     8     1     2   ar
     9     2     3   ar
    10     3     4   ar
    11     4     7    1
    12     7     8    2
    13     8     9    1
    14     9    10    2
    15    10    11    1
    16    11    12    2
    17    12    13    1
    18    13    16    1
    19    16    17    1
    20    17    18    1
    21    13    14    2
    22    14    15    1
    23     4     5   ar
    24     5     6   ar
    25     6     1   ar
    26    15     7    1
    27    15    11    1
    28    18    16    1
    29    22    23    1
    30    26    27    1
@<TRIPOS>MOLECULE
*****
 27 30 0 0 0
SMALL
GASTEIGER

@<TRIPOS>ATOM
      1 C          63.1229   83.5698   11.6777 C.ar    1  UNL1        0.1219
      2 C          63.3027   83.8758   10.2203 C.ar    1  UNL1        0.0199
      3 C          62.7701   85.1577    9.6519 C.ar    1  UNL1        0.0011
      4 C          62.0578   86.1336   10.5409 C.ar    1  UNL1       -0.0029
      5 C          61.8780   85.8275   11.9983 C.ar    1  UNL1        0.0011
      6 C          62.4106   84.5457   12.5667 C.ar    1  UNL1        0.0199
      7 C          61.5252   87.4155    9.9724 C.2     1  UNL1       -0.0027
      8 C          60.4355   87.3836    8.9421 C.2     1  UNL1        0.0471
      9 C          59.9030   88.6655    8.3737 C.2     1  UNL1        0.2354
     10 N          60.4601   89.9793    8.8357 N.2     1  UNL1       -0.0341
     11 C          61.5497   90.0113    9.8660 C.2     1  UNL1        0.3588
     12 N          62.2894   91.1464   10.5098 N.2     1  UNL1       -0.0428
     13 C          63.2791   90.5660   11.4761 C.2     1  UNL1        0.1669
     14 C          63.1511   89.0722   11.4295 C.2     1  UNL1        0.0323
     15 C          62.0823   88.7294   10.4344 C.3     1  UNL1        0.1596
     16 C          64.2299   91.3430   12.3377 C.3     1  UNL1        0.0658
     17 C          64.8890   91.5719   13.6655 C.3     1  UNL1        0.0087
     18 C          65.2175   92.4600   12.5022 C.3     1  UNL1        0.0087
     19 O          63.8520   82.9582   13.5736 O.2     1  UNL1       -0.1530
     20 S          63.6555   82.2879   12.2462 S.O2    1  UNL1        0.0603
     21 O          63.4590   81.6176   10.9188 O.2     1  UNL1       -0.1530
     22 N          64.1880   81.0060   12.8146 N.3     1  UNL1       -0.1768
     23 H          65.0556   81.2367   13.2989 H       1  UNL1        0.1489
     24 C          63.3556   80.2080   13.7739 C.3     1  UNL1        0.1231
     25 C          61.8629   80.3566   13.7750 C.3     1  UNL1        0.1559
     26 O          61.2150   81.4129   14.6202 O.3     1  UNL1       -0.3805
     27 H          61.3587   81.2099   15.5578 H       1  UNL1        0.2105
@<TRIPOS>BOND
     1    19    20    2
     2    20    21    2
     3    20    22    1
     4    22    24    1
     5    24    25    1
     6    25    26    1
     7    20     1    1
     8     1     2   ar
     9     2     3   ar
    10     3     4   ar
    11     4     7    1
    12     7     8    2
    13     8     9    1
    14     9    10    2
    15    10    11    1
    16    11    12    2
    17    12    13    1
    18    13    16    1
    19    16    17    1
    20    17    18    1
    21    13    14    2
    22    14    15    1
    23     4     5   ar
    24     5     6   ar
    25     6     1   ar
    26    15     7    1
    27    15    11    1
    28    18    16    1
    29    22    23    1
    30    26    27    1
@<TRIPOS>MOLECULE
*****
 27 30 0 0 0
SMALL
GASTEIGER

@<TRIPOS>ATOM
      1 C          61.8684   89.3941   11.2911 C.ar    1  UNL1        0.1219
      2 C          62.1850   89.3282   12.7559 C.ar    1  UNL1        0.0199
      3 C          63.2545   90.2080   13.3323 C.ar    1  UNL1        0.0011
      4 C          64.0073   91.1536   12.4440 C.ar    1  UNL1       -0.0029
      5 C          63.6908   91.2194   10.9793 C.ar    1  UNL1        0.0011
      6 C          62.6213   90.3397   10.4028 C.ar    1  UNL1        0.0199
      7 C          65.0768   92.0334   13.0205 C.2     1  UNL1       -0.0027
      8 C          65.6950   91.6934   14.3441 C.2     1  UNL1        0.0471
      9 C          66.7645   92.5731   14.9205 C.2     1  UNL1        0.2354
     10 N          67.2157   93.7930   14.1732 N.2     1  UNL1       -0.0341
     11 C          66.5975   94.1330   12.8495 C.2     1  UNL1        0.3588
     12 N          66.8362   95.2613   11.8905 N.2     1  UNL1       -0.0428
     13 C          65.9143   95.0789   10.7213 C.2     1  UNL1        0.1669
     14 C          65.1058   93.8378   10.9578 C.2     1  UNL1        0.0323
     15 C          65.5280   93.2532   12.2732 C.3     1  UNL1        0.1596
     16 C          65.8179   95.9796    9.5256 C.3     1  UNL1        0.0658
     17 C          66.4828   96.7851    8.4491 C.3     1  UNL1        0.0087
     18 C          64.9860   96.7339    8.5312 C.3     1  UNL1        0.0087
     19 O          61.3648   88.7261    9.3418 O.2     1  UNL1       -0.1530
     20 S          60.7990   88.5143   10.7147 S.O2    1  UNL1        0.0603
     21 O          60.2331   88.3025   12.0876 O.2     1  UNL1       -0.1530
     22 N          59.7295   87.6346   10.1382 N.3     1  UNL1       -0.1768
     23 H          58.8532   87.9057   10.5841 H       1  UNL1        0.1489
     24 C          59.4793   87.6290    8.6593 C.3     1  UNL1        0.1231
     25 C          59.7001   86.3752    7.8659 C.3     1  UNL1        0.1559
     26 O          61.0697   86.0452    7.3507 O.3     1  UNL1       -0.3805
     27 H          61.3340   86.7041    6.6898 H       1  UNL1        0.2105
@<TRIPOS>BOND
     1    19    20    2
     2    20    21    2
     3    20    22    1
     4    22    24    1
     5    24    25    1
     6    25    26    1
     7    20     1    1
     8     1     2   ar
     9     2     3   ar
    10     3     4   ar
    11     4     7    1
    12     7     8    2
    13     8     9    1
    14     9    10    2
    15    10    11    1
    16    11    12    2
    17    12    13    1
    18    13    16    1
    19    16    17    1
    20    17    18    1
    21    13    14    2
    22    14    15    1
    23     4     5   ar
    24     5     6   ar
    25     6     1   ar
    26    15     7    1
    27    15    11    1
    28    18    16    1
    29    22    23    1
    30    26    27    1
@<TRIPOS>MOLECULE
*****
 27 30 0 0 0
SMALL
GASTEIGER

@<TRIPOS>ATOM
      1 C          62.8411   81.9381   12.0273 C.ar    1  UNL1        0.1219
      2 C          63.3580   82.7626   10.8858 C.ar    1  UNL1        0.0199
      3 C          63.4257   84.2560   11.0095 C.ar    1  UNL1        0.0011
      4 C          62.9765   84.9249   12.2747 C.ar    1  UNL1       -0.0029
      5 C          62.4596   84.1004   13.4163 C.ar    1  UNL1        0.0011
      6 C          62.3919   82.6071   13.2926 C.ar    1  UNL1        0.0199
      7 C          63.0442   86.4183   12.3984 C.2     1  UNL1       -0.0027
      8 C          63.8311   87.0437   13.5118 C.2     1  UNL1        0.0471
      9 C          63.8988   88.5370   13.6355 C.2     1  UNL1        0.2354
     10 N          63.1796   89.4049   12.6458 N.2     1  UNL1       -0.0341
     11 C          62.3927   88.7795   11.5324 C.2     1  UNL1        0.3588
     12 N          61.5866   89.3741   10.4159 N.2     1  UNL1       -0.0428
     13 C          61.0208   88.2482    9.6021 C.2     1  UNL1        0.1669
     14 C          61.4771   86.9578   10.2157 C.2     1  UNL1        0.0323
     15 C          62.3250   87.2862   11.4087 C.3     1  UNL1        0.1596
     16 C          60.1512   88.3882    8.3878 C.3     1  UNL1        0.0658
     17 C          59.4299   89.2561    7.3997 C.3     1  UNL1        0.0087
     18 C          59.3664   87.7628    7.2730 C.3     1  UNL1        0.0087
     19 O          62.5701   80.3313   13.3854 O.2     1  UNL1       -0.1530
     20 S          62.7734   80.4448   11.9037 S.O2    1  UNL1        0.0603
     21 O          62.9768   80.5583   10.4219 O.2     1  UNL1       -0.1530
     22 N          62.7057   78.9515   11.7800 N.3     1  UNL1       -0.1768
     23 H          61.8597   78.6538   12.2659 H       1  UNL1        0.1489
     24 C          62.6736   78.3119   10.4236 C.3     1  UNL1        0.1231
     25 C          63.3533   76.9935   10.1997 C.3     1  UNL1        0.1559
     26 O          62.5586   75.7222   10.2487 O.3     1  UNL1       -0.3805
     27 H          62.2267   75.5829   11.1495 H       1  UNL1        0.2105
@<TRIPOS>BOND
     1    19    20    2
     2    20    21    2
     3    20    22    1
     4    22    24    1
     5    24    25    1
     6    25    26    1
     7    20     1    1
     8     1     2   ar
     9     2     3   ar
    10     3     4   ar
    11     4     7    1
    12     7     8    2
    13     8     9    1
    14     9    10    2
    15    10    11    1
    16    11    12    2
    17    12    13    1
    18    13    16    1
    19    16    17    1
    20    17    18    1
    21    13    14    2
    22    14    15    1
    23     4     5   ar
    24     5     6   ar
    25     6     1   ar
    26    15     7    1
    27    15    11    1
    28    18    16    1
    29    22    23    1
    30    26    27    1
@<TRIPOS>MOLECULE
*****
 27 30 0 0 0
SMALL
GASTEIGER

@<TRIPOS>ATOM
      1 C          57.4303   93.9600   -0.9763 C.ar    1  UNL1        0.1219
      2 C          58.2276   95.1141   -0.4449 C.ar    1  UNL1        0.0199
      3 C          59.5968   94.8820    0.1220 C.ar    1  UNL1        0.0011
      4 C          60.1688   93.4958    0.1575 C.ar    1  UNL1       -0.0029
      5 C          59.3716   92.3417   -0.3740 C.ar    1  UNL1        0.0011
      6 C          58.0024   92.5737   -0.9409 C.ar    1  UNL1        0.0199
      7 C          61.5381   93.2637    0.7244 C.2     1  UNL1       -0.0027
      8 C          61.7060   92.4376    1.9651 C.2     1  UNL1        0.0471
      9 C          63.0752   92.2055    2.5319 C.2     1  UNL1        0.2354
     10 N          64.2765   92.7995    1.8581 N.2     1  UNL1       -0.0341
     11 C          64.1086   93.6256    0.6174 C.2     1  UNL1        0.3588
     12 N          65.0991   94.3336   -0.2587 N.2     1  UNL1       -0.0428
     13 C          64.3420   95.0033   -1.3671 C.2     1  UNL1        0.1669
     14 C          62.8836   94.7092   -1.1760 C.2     1  UNL1        0.0323
     15 C          62.7394   93.8577    0.0505 C.3     1  UNL1        0.1596
     16 C          64.9387   95.8233   -2.4725 C.3     1  UNL1        0.0658
     17 C          65.9248   96.8525   -2.9396 C.3     1  UNL1        0.0087
     18 C          64.9859   96.2142   -3.9199 C.3     1  UNL1        0.0087
     19 O          55.8479   92.7101   -1.6348 O.2     1  UNL1       -0.1530
     20 S          56.0612   94.1920   -1.5432 S.O2    1  UNL1        0.0603
     21 O          56.2744   95.6739   -1.4516 O.2     1  UNL1       -0.1530
     22 N          54.6920   94.4241   -2.1101 N.3     1  UNL1       -0.1768
     23 H          54.1009   93.6645   -1.7725 H       1  UNL1        0.1489
     24 C          53.9649   95.7025   -1.8151 C.3     1  UNL1        0.1231
     25 C          52.6550   95.9923   -2.4863 C.3     1  UNL1        0.1559
     26 O          51.4592   95.1333   -2.1997 O.3     1  UNL1       -0.3805
     27 H          51.6178   94.2365   -2.5337 H       1  UNL1        0.2105
@<TRIPOS>BOND
     1    19    20    2
     2    20    21    2
     3    20    22    1
     4    22    24    1
     5    24    25    1
     6    25    26    1
     7    20     1    1
     8     1     2   ar
     9     2     3   ar
    10     3     4   ar
    11     4     7    1
    12     7     8    2
    13     8     9    1
    14     9    10    2
    15    10    11    1
    16    11    12    2
    17    12    13    1
    18    13    16    1
    19    16    17    1
    20    17    18    1
    21    13    14    2
    22    14    15    1
    23     4     5   ar
    24     5     6   ar
    25     6     1   ar
    26    15     7    1
    27    15    11    1
    28    18    16    1
    29    22    23    1
    30    26    27    1
