@<TRIPOS>MOLECULE
*****
 34 38 0 0 0
SMALL
GASTEIGER

@<TRIPOS>ATOM
      1 C          62.4940   85.3344   11.6659 C.ar    1  UNL1        0.1704
      2 N          63.1271   86.4631   12.4243 N.ar    1  UNL1       -0.2120
      3 C          62.8838   87.8812   12.0003 C.ar    1  UNL1        0.1506
      4 C          62.0075   88.1706   10.8178 C.ar    1  UNL1        0.1100
      5 C          61.3744   87.0419   10.0593 C.ar    1  UNL1        0.1049
      6 N          61.6177   85.6238   10.4834 N.ar    1  UNL1       -0.2265
      7 C          60.5640   87.6307    8.9428 C.ar    1  UNL1        0.0635
      8 C          59.7228   87.0005    7.8727 C.ar    1  UNL1        0.1412
      9 CL         59.5906   85.5079    7.8043 Cl      1  UNL1       -0.0612
     10 N          59.0138   87.8630    6.8710 N.ar    1  UNL1       -0.2323
     11 C          59.1460   89.3556    6.9394 C.ar    1  UNL1        0.1013
     12 C          59.9872   89.9857    8.0095 C.ar    1  UNL1        0.0380
     13 C          60.6962   89.1233    9.0112 C.ar    1  UNL1        0.0654
     14 N          61.5883   89.4570   10.1700 N.ar    1  UNL1       -0.3217
     15 C          61.9906   90.8351   10.6047 C.3     1  UNL1        0.1306
     16 N          63.5169   89.0099   12.7588 N.pl3   1  UNL1       -0.2892
     17 C          63.6416   90.3633   12.1240 C.3     1  UNL1        0.1095
     18 C          64.2747   91.4920   12.8824 C.3     1  UNL1        0.0939
     19 N          64.7830   91.2674   14.2756 N.3     1  UNL1       -0.2695
     20 C          64.6583   89.9141   14.9104 C.3     1  UNL1        0.0939
     21 C          64.0252   88.7853   14.1520 C.3     1  UNL1        0.1095
     22 C          65.4161   92.3960   15.0341 C.3     1  UNL1        0.0769
     23 C          66.6392   93.0724   14.4898 C.3     1  UNL1        0.0437
     24 C          66.7736   93.3052   13.0140 C.ar    1  UNL1       -0.0184
     25 C          66.2355   94.5641   12.4012 C.ar    1  UNL1       -0.0018
     26 C          66.3698   94.7969   10.9255 C.ar    1  UNL1        0.0316
     27 C          67.0422   93.7706   10.0626 C.ar    1  UNL1        0.1674
     28 F          67.1766   94.0033    8.5869 F       1  UNL1       -0.2018
     29 C          67.5803   92.5117   10.6754 C.ar    1  UNL1        0.1671
     30 F          68.2528   91.4855    9.8124 F       1  UNL1       -0.2018
     31 C          67.4460   92.2790   12.1510 C.ar    1  UNL1        0.0277
     32 C          62.7373   83.9163   12.0899 C.3     1  UNL1        0.2073
     33 C          64.2388   82.5892   10.4362 C.3     1  UNL1        0.1747
     34 O          64.0425   83.2508   11.7682 O.3     1  UNL1       -0.3430
@<TRIPOS>BOND
     1    33    34    1
     2    34    32    1
     3    32     1    1
     4     1     2   ar
     5     2     3   ar
     6     3    16    1
     7    16    17    1
     8    17    18    1
     9    18    19    1
    10    19    22    1
    11    22    23    1
    12    23    24    1
    13    24    25   ar
    14    25    26   ar
    15    26    27   ar
    16    27    28    1
    17    27    29   ar
    18    29    30    1
    19    29    31   ar
    20    19    20    1
    21    20    21    1
    22     3     4   ar
    23     4     5   ar
    24     5     6   ar
    25     5     7   ar
    26     7     8   ar
    27     8     9    1
    28     8    10   ar
    29    10    11   ar
    30    11    12   ar
    31    12    13   ar
    32    13    14   ar
    33    14    15    1
    34     6     1   ar
    35    13     7   ar
    36    21    16    1
    37    14     4   ar
    38    31    24   ar
@<TRIPOS>MOLECULE
*****
 34 38 0 0 0
SMALL
GASTEIGER

@<TRIPOS>ATOM
      1 C          61.6482   86.3257   10.0910 C.ar    1  UNL1        0.1704
      2 N          62.1798   87.5988   10.6797 N.ar    1  UNL1       -0.2120
      3 C          62.9415   87.5670   11.9715 C.ar    1  UNL1        0.1506
      4 C          63.1716   86.2621   12.6746 C.ar    1  UNL1        0.1100
      5 C          62.6400   84.9890   12.0859 C.ar    1  UNL1        0.1049
      6 N          61.8783   85.0208   10.7941 N.ar    1  UNL1       -0.2265
      7 C          63.0203   83.8616   12.9993 C.ar    1  UNL1        0.0635
      8 C          62.7676   82.3847   12.9300 C.ar    1  UNL1        0.1412
      9 CL         62.0009   81.8084   11.7767 Cl      1  UNL1       -0.0612
     10 N          63.2815   81.4842   14.0139 N.ar    1  UNL1       -0.2323
     11 C          64.0482   82.0605   15.1671 C.ar    1  UNL1        0.1013
     12 C          64.3009   83.5374   15.2365 C.ar    1  UNL1        0.0380
     13 C          63.7870   84.4379   14.1526 C.ar    1  UNL1        0.0654
     14 N          63.8805   85.9215   13.9519 N.ar    1  UNL1       -0.3217
     15 C          64.5631   86.8938   14.8677 C.3     1  UNL1        0.1306
     16 N          63.4732   88.8401   12.5602 N.pl3   1  UNL1       -0.2892
     17 C          64.2007   88.8135   13.8717 C.3     1  UNL1        0.1095
     18 C          64.7324   90.0865   14.4605 C.3     1  UNL1        0.0939
     19 N          64.5364   91.3863   13.7377 N.3     1  UNL1       -0.2695
     20 C          63.8089   91.4129   12.4262 C.3     1  UNL1        0.0939
     21 C          63.2773   90.1397   11.8375 C.3     1  UNL1        0.1095
     22 C          65.0681   92.6594   14.3264 C.3     1  UNL1        0.0769
     23 C          66.3953   93.1958   13.8785 C.3     1  UNL1        0.0437
     24 C          66.6442   93.4627   12.4235 C.ar    1  UNL1       -0.0184
     25 C          66.2782   94.7914   11.8314 C.ar    1  UNL1       -0.0018
     26 C          66.5270   95.0582   10.3765 C.ar    1  UNL1        0.0316
     27 C          67.1419   93.9964    9.5137 C.ar    1  UNL1        0.1674
     28 F          67.3907   94.2631    8.0588 F       1  UNL1       -0.2018
     29 C          67.5079   92.6677   10.1058 C.ar    1  UNL1        0.1671
     30 F          68.1227   91.6058    9.2430 F       1  UNL1       -0.2018
     31 C          67.2590   92.4008   11.5607 C.ar    1  UNL1        0.0277
     32 C          60.8864   86.3574    8.7992 C.3     1  UNL1        0.2073
     33 C          59.3374   88.1235    7.6894 C.3     1  UNL1        0.1747
     34 O          59.5645   87.0625    8.7252 O.3     1  UNL1       -0.3430
@<TRIPOS>BOND
     1    33    34    1
     2    34    32    1
     3    32     1    1
     4     1     2   ar
     5     2     3   ar
     6     3    16    1
     7    16    17    1
     8    17    18    1
     9    18    19    1
    10    19    22    1
    11    22    23    1
    12    23    24    1
    13    24    25   ar
    14    25    26   ar
    15    26    27   ar
    16    27    28    1
    17    27    29   ar
    18    29    30    1
    19    29    31   ar
    20    19    20    1
    21    20    21    1
    22     3     4   ar
    23     4     5   ar
    24     5     6   ar
    25     5     7   ar
    26     7     8   ar
    27     8     9    1
    28     8    10   ar
    29    10    11   ar
    30    11    12   ar
    31    12    13   ar
    32    13    14   ar
    33    14    15    1
    34     6     1   ar
    35    13     7   ar
    36    21    16    1
    37    14     4   ar
    38    31    24   ar
@<TRIPOS>MOLECULE
*****
 34 38 0 0 0
SMALL
GASTEIGER

@<TRIPOS>ATOM
      1 C          63.6937   89.4110   13.3422 C.ar    1  UNL1        0.1704
      2 N          62.8554   89.6137   12.1150 N.ar    1  UNL1       -0.2120
      3 C          62.3053   88.4285   11.3783 C.ar    1  UNL1        0.1506
      4 C          62.5935   87.0406   11.8690 C.ar    1  UNL1        0.1100
      5 C          63.4318   86.8379   13.0962 C.ar    1  UNL1        0.1049
      6 N          63.9819   88.0231   13.8328 N.ar    1  UNL1       -0.2265
      7 C          63.5471   85.3624   13.3404 C.ar    1  UNL1        0.0635
      8 C          64.2514   84.5731   14.4037 C.ar    1  UNL1        0.1412
      9 CL         65.0185   85.2823   15.4801 Cl      1  UNL1       -0.0612
     10 N          64.1887   83.0745   14.3907 N.ar    1  UNL1       -0.2323
     11 C          63.4216   82.3652   13.3144 C.ar    1  UNL1        0.1013
     12 C          62.7173   83.1546   12.2510 C.ar    1  UNL1        0.0380
     13 C          62.7800   84.6532   12.2640 C.ar    1  UNL1        0.0654
     14 N          62.1907   85.6903   11.3546 N.ar    1  UNL1       -0.3217
     15 C          61.3467   85.4240   10.1436 C.3     1  UNL1        0.1306
     16 N          61.4670   88.6312   10.1511 N.pl3   1  UNL1       -0.2892
     17 C          60.6500   89.8800    9.9987 C.3     1  UNL1        0.1095
     18 C          59.8117   90.0828    8.7715 C.3     1  UNL1        0.0939
     19 N          59.7903   89.0367    7.6967 N.3     1  UNL1       -0.2695
     20 C          60.6072   87.7880    7.8490 C.3     1  UNL1        0.0939
     21 C          61.4456   87.5852    9.0763 C.3     1  UNL1        0.1095
     22 C          58.9520   89.2394    6.4694 C.3     1  UNL1        0.0769
     23 C          58.6969   90.6255    5.9560 C.3     1  UNL1        0.0437
     24 C          59.6168   91.2287    4.9361 C.ar    1  UNL1       -0.0184
     25 C          59.1225   92.3183    4.0315 C.ar    1  UNL1       -0.0018
     26 C          60.0423   92.9215    3.0117 C.ar    1  UNL1        0.0316
     27 C          61.4566   92.4350    2.8966 C.ar    1  UNL1        0.1674
     28 F          62.3765   93.0381    1.8768 F       1  UNL1       -0.2018
     29 C          61.9509   91.3454    3.8012 C.ar    1  UNL1        0.1671
     30 F          63.3652   90.8589    3.6860 F       1  UNL1       -0.2018
     31 C          61.0311   90.7422    4.8209 C.ar    1  UNL1        0.0277
     32 C          64.2438   90.5963   14.0789 C.3     1  UNL1        0.2073
     33 C          65.4799   92.2698   12.5228 C.3     1  UNL1        0.1747
     34 O          64.3126   91.9336   13.4030 O.3     1  UNL1       -0.3430
@<TRIPOS>BOND
     1    33    34    1
     2    34    32    1
     3    32     1    1
     4     1     2   ar
     5     2     3   ar
     6     3    16    1
     7    16    17    1
     8    17    18    1
     9    18    19    1
    10    19    22    1
    11    22    23    1
    12    23    24    1
    13    24    25   ar
    14    25    26   ar
    15    26    27   ar
    16    27    28    1
    17    27    29   ar
    18    29    30    1
    19    29    31   ar
    20    19    20    1
    21    20    21    1
    22     3     4   ar
    23     4     5   ar
    24     5     6   ar
    25     5     7   ar
    26     7     8   ar
    27     8     9    1
    28     8    10   ar
    29    10    11   ar
    30    11    12   ar
    31    12    13   ar
    32    13    14   ar
    33    14    15    1
    34     6     1   ar
    35    13     7   ar
    36    21    16    1
    37    14     4   ar
    38    31    24   ar
@<TRIPOS>MOLECULE
*****
 34 38 0 0 0
SMALL
GASTEIGER

@<TRIPOS>ATOM
      1 C          60.3639   93.0922    2.4813 C.ar    1  UNL1        0.1704
      2 N          59.1811   93.3565    1.5975 N.ar    1  UNL1       -0.2120
      3 C          59.3671   94.0616    0.2867 C.ar    1  UNL1        0.1506
      4 C          60.7358   94.5025   -0.1402 C.ar    1  UNL1        0.1100
      5 C          61.9186   94.2381    0.7436 C.ar    1  UNL1        0.1049
      6 N          61.7326   93.5330    2.0544 N.ar    1  UNL1       -0.2265
      7 C          63.1378   94.7857    0.0626 C.ar    1  UNL1        0.0635
      8 C          64.5833   94.8133    0.4620 C.ar    1  UNL1        0.1412
      9 CL         65.0126   94.2106    1.7668 Cl      1  UNL1       -0.0612
     10 N          65.5996   95.4437   -0.4434 N.ar    1  UNL1       -0.2323
     11 C          65.1703   96.0464   -1.7481 C.ar    1  UNL1        0.1013
     12 C          63.7248   96.0188   -2.1475 C.ar    1  UNL1        0.0380
     13 C          62.7085   95.3884   -1.2422 C.ar    1  UNL1        0.0654
     14 N          61.2240   95.2134   -1.3675 N.ar    1  UNL1       -0.3217
     15 C          60.3766   95.6693   -2.5182 C.3     1  UNL1        0.1306
     16 N          58.1843   94.3260   -0.5971 N.pl3   1  UNL1       -0.2892
     17 C          57.5007   93.1879   -1.2956 C.3     1  UNL1        0.1095
     18 C          56.3180   93.4522   -2.1794 C.3     1  UNL1        0.0939
     19 N          55.8188   94.8545   -2.3649 N.3     1  UNL1       -0.2695
     20 C          56.5023   95.9924   -1.6664 C.3     1  UNL1        0.0939
     21 C          57.6851   95.7281   -0.7825 C.3     1  UNL1        0.1095
     22 C          54.6360   95.1188   -3.2487 C.3     1  UNL1        0.0769
     23 C          54.8413   95.4499   -4.6972 C.3     1  UNL1        0.0437
     24 C          56.1053   95.0342   -5.3898 C.ar    1  UNL1       -0.0184
     25 C          57.2520   95.9951   -5.4981 C.ar    1  UNL1       -0.0018
     26 C          58.5159   95.5795   -6.1906 C.ar    1  UNL1        0.0316
     27 C          58.6332   94.2029   -6.7748 C.ar    1  UNL1        0.1674
     28 F          59.8972   93.7871   -7.4673 F       1  UNL1       -0.2018
     29 C          57.4865   93.2420   -6.6664 C.ar    1  UNL1        0.1671
     30 F          57.6038   91.8653   -7.2506 F       1  UNL1       -0.2018
     31 C          56.2226   93.6576   -5.9739 C.ar    1  UNL1        0.0277
     32 C          60.1779   92.3870    3.7922 C.3     1  UNL1        0.2073
     33 C          57.9160   91.6528    4.8384 C.3     1  UNL1        0.1747
     34 O          58.9812   92.6909    4.6440 O.3     1  UNL1       -0.3430
@<TRIPOS>BOND
     1    33    34    1
     2    34    32    1
     3    32     1    1
     4     1     2   ar
     5     2     3   ar
     6     3    16    1
     7    16    17    1
     8    17    18    1
     9    18    19    1
    10    19    22    1
    11    22    23    1
    12    23    24    1
    13    24    25   ar
    14    25    26   ar
    15    26    27   ar
    16    27    28    1
    17    27    29   ar
    18    29    30    1
    19    29    31   ar
    20    19    20    1
    21    20    21    1
    22     3     4   ar
    23     4     5   ar
    24     5     6   ar
    25     5     7   ar
    26     7     8   ar
    27     8     9    1
    28     8    10   ar
    29    10    11   ar
    30    11    12   ar
    31    12    13   ar
    32    13    14   ar
    33    14    15    1
    34     6     1   ar
    35    13     7   ar
    36    21    16    1
    37    14     4   ar
    38    31    24   ar
@<TRIPOS>MOLECULE
*****
 34 38 0 0 0
SMALL
GASTEIGER

@<TRIPOS>ATOM
      1 C          63.2748   84.5936   11.5093 C.ar    1  UNL1        0.1704
      2 N          63.5629   85.6460   12.5386 N.ar    1  UNL1       -0.2120
      3 C          62.9968   87.0258   12.3791 C.ar    1  UNL1        0.1506
      4 C          62.1425   87.3533   11.1904 C.ar    1  UNL1        0.1100
      5 C          61.8544   86.3008   10.1612 C.ar    1  UNL1        0.1049
      6 N          62.4205   84.9210   10.3206 N.ar    1  UNL1       -0.2265
      7 C          60.9854   86.9130    9.1028 C.ar    1  UNL1        0.0635
      8 C          60.3887   86.3525    7.8460 C.ar    1  UNL1        0.1412
      9 CL         60.6376   84.9217    7.4708 Cl      1  UNL1       -0.0612
     10 N          59.5430   87.2228    6.9643 N.ar    1  UNL1       -0.2323
     11 C          59.2940   88.6536    7.3395 C.ar    1  UNL1        0.1013
     12 C          59.8908   89.2142    8.5963 C.ar    1  UNL1        0.0380
     13 C          60.7365   88.3439    9.4780 C.ar    1  UNL1        0.0654
     14 N          61.4516   88.6159   10.7682 N.ar    1  UNL1       -0.3217
     15 C          61.4722   89.9215   11.5065 C.3     1  UNL1        0.1306
     16 N          63.2849   88.0783   13.4084 N.pl3   1  UNL1       -0.2892
     17 C          63.3177   87.7152   14.8635 C.3     1  UNL1        0.1095
     18 C          63.6058   88.7676   15.8928 C.3     1  UNL1        0.0939
     19 N          63.8612   90.1830   15.4670 N.3     1  UNL1       -0.2695
     20 C          63.8284   90.5461   14.0120 C.3     1  UNL1        0.0939
     21 C          63.5403   89.4936   12.9826 C.3     1  UNL1        0.1095
     22 C          64.1493   91.2355   16.4962 C.3     1  UNL1        0.0769
     23 C          64.8690   92.4915   16.1034 C.3     1  UNL1        0.0437
     24 C          66.2618   92.4165   15.5513 C.ar    1  UNL1       -0.0184
     25 C          67.4400   92.6076   16.4597 C.ar    1  UNL1       -0.0018
     26 C          68.8326   92.5325   15.9076 C.ar    1  UNL1        0.0316
     27 C          69.0471   92.2665   14.4471 C.ar    1  UNL1        0.1674
     28 F          70.4397   92.1914   13.8949 F       1  UNL1       -0.2018
     29 C          67.8688   92.0754   13.5386 C.ar    1  UNL1        0.1671
     30 F          68.0833   91.8093   12.0781 F       1  UNL1       -0.2018
     31 C          66.4762   92.1504   14.0907 C.ar    1  UNL1        0.0277
     32 C          63.8410   83.2136   11.6688 C.3     1  UNL1        0.2073
     33 C          62.4059   81.4979   12.9905 C.3     1  UNL1        0.1747
     34 O          62.9261   82.0251   11.6860 O.3     1  UNL1       -0.3430
@<TRIPOS>BOND
     1    33    34    1
     2    34    32    1
     3    32     1    1
     4     1     2   ar
     5     2     3   ar
     6     3    16    1
     7    16    17    1
     8    17    18    1
     9    18    19    1
    10    19    22    1
    11    22    23    1
    12    23    24    1
    13    24    25   ar
    14    25    26   ar
    15    26    27   ar
    16    27    28    1
    17    27    29   ar
    18    29    30    1
    19    29    31   ar
    20    19    20    1
    21    20    21    1
    22     3     4   ar
    23     4     5   ar
    24     5     6   ar
    25     5     7   ar
    26     7     8   ar
    27     8     9    1
    28     8    10   ar
    29    10    11   ar
    30    11    12   ar
    31    12    13   ar
    32    13    14   ar
    33    14    15    1
    34     6     1   ar
    35    13     7   ar
    36    21    16    1
    37    14     4   ar
    38    31    24   ar
@<TRIPOS>MOLECULE
*****
 34 38 0 0 0
SMALL
GASTEIGER

@<TRIPOS>ATOM
      1 C          62.3173   86.0247    9.6357 C.ar    1  UNL1        0.1704
      2 N          62.5847   87.1212   10.6237 N.ar    1  UNL1       -0.2120
      3 C          62.9700   86.7830   12.0333 C.ar    1  UNL1        0.1506
      4 C          63.0880   85.3483   12.4549 C.ar    1  UNL1        0.1100
      5 C          62.8205   84.2518   11.4669 C.ar    1  UNL1        0.1049
      6 N          62.4352   84.5900   10.0573 N.ar    1  UNL1       -0.2265
      7 C          63.0142   82.9395   12.1671 C.ar    1  UNL1        0.0635
      8 C          62.8881   81.5215   11.6946 C.ar    1  UNL1        0.1412
      9 CL         62.5010   81.2361   10.2738 Cl      1  UNL1       -0.0612
     10 N          63.1491   80.3890   12.6428 N.ar    1  UNL1       -0.2323
     11 C          63.5363   80.6744   14.0636 C.ar    1  UNL1        0.1013
     12 C          63.6624   82.0924   14.5362 C.ar    1  UNL1        0.0380
     13 C          63.4014   83.2249   13.5879 C.ar    1  UNL1        0.0654
     14 N          63.4470   84.7136   13.7658 N.ar    1  UNL1       -0.3217
     15 C          63.7911   85.4401   15.0322 C.3     1  UNL1        0.1306
     16 N          63.2375   87.8795   13.0213 N.pl3   1  UNL1       -0.2892
     17 C          64.1926   87.6509   14.1552 C.3     1  UNL1        0.1095
     18 C          64.4600   88.7473   15.1432 C.3     1  UNL1        0.0939
     19 N          63.7724   90.0725   14.9974 N.3     1  UNL1       -0.2695
     20 C          62.8174   90.3011   13.8635 C.3     1  UNL1        0.0939
     21 C          62.5499   89.2046   12.8755 C.3     1  UNL1        0.1095
     22 C          64.0398   91.1690   15.9854 C.3     1  UNL1        0.0769
     23 C          64.7429   92.4191   15.5463 C.3     1  UNL1        0.0437
     24 C          66.1907   92.3680   15.1567 C.ar    1  UNL1       -0.0184
     25 C          67.2497   92.7234   16.1578 C.ar    1  UNL1       -0.0018
     26 C          68.6973   92.6723   15.7684 C.ar    1  UNL1        0.0316
     27 C          69.0859   92.2658   14.3777 C.ar    1  UNL1        0.1674
     28 F          70.5335   92.2147   13.9882 F       1  UNL1       -0.2018
     29 C          68.0269   91.9104   13.3767 C.ar    1  UNL1        0.1671
     30 F          68.4155   91.5040   11.9861 F       1  UNL1       -0.2018
     31 C          66.5793   91.9615   13.7661 C.ar    1  UNL1        0.0277
     32 C          61.9319   86.3629    8.2259 C.3     1  UNL1        0.2073
     33 C          59.4304   86.8936    8.6852 C.3     1  UNL1        0.1747
     34 O          60.7098   87.1913    7.9608 O.3     1  UNL1       -0.3430
@<TRIPOS>BOND
     1    33    34    1
     2    34    32    1
     3    32     1    1
     4     1     2   ar
     5     2     3   ar
     6     3    16    1
     7    16    17    1
     8    17    18    1
     9    18    19    1
    10    19    22    1
    11    22    23    1
    12    23    24    1
    13    24    25   ar
    14    25    26   ar
    15    26    27   ar
    16    27    28    1
    17    27    29   ar
    18    29    30    1
    19    29    31   ar
    20    19    20    1
    21    20    21    1
    22     3     4   ar
    23     4     5   ar
    24     5     6   ar
    25     5     7   ar
    26     7     8   ar
    27     8     9    1
    28     8    10   ar
    29    10    11   ar
    30    11    12   ar
    31    12    13   ar
    32    13    14   ar
    33    14    15    1
    34     6     1   ar
    35    13     7   ar
    36    21    16    1
    37    14     4   ar
    38    31    24   ar
@<TRIPOS>MOLECULE
*****
 34 38 0 0 0
SMALL
GASTEIGER

@<TRIPOS>ATOM
      1 C          57.4614   94.0539   -1.3081 C.ar    1  UNL1        0.1704
      2 N          58.1946   94.4717   -2.5482 N.ar    1  UNL1       -0.2120
      3 C          59.6940   94.4408   -2.5792 C.ar    1  UNL1        0.1506
      4 C          60.4601   93.9921   -1.3701 C.ar    1  UNL1        0.1100
      5 C          59.7268   93.5743   -0.1300 C.ar    1  UNL1        0.1049
      6 N          58.2275   93.6052   -0.0990 N.ar    1  UNL1       -0.2265
      7 C          60.7442   93.1819    0.9000 C.ar    1  UNL1        0.0635
      8 C          60.6063   92.6876    2.3095 C.ar    1  UNL1        0.1412
      9 CL         59.2443   92.5123    2.9129 Cl      1  UNL1       -0.0612
     10 N          61.8304   92.3686    3.1155 N.ar    1  UNL1       -0.2323
     11 C          63.1924   92.5439    2.5120 C.ar    1  UNL1        0.1013
     12 C          63.3303   93.0382    1.1026 C.ar    1  UNL1        0.0380
     13 C          62.1062   93.3572    0.2966 C.ar    1  UNL1        0.0654
     14 N          61.9306   93.8579   -1.1064 N.ar    1  UNL1       -0.3217
     15 C          63.0322   94.1697   -2.0756 C.3     1  UNL1        0.1306
     16 N          60.4272   94.8586   -3.8192 N.pl3   1  UNL1       -0.2892
     17 C          60.3256   94.0302   -5.0657 C.3     1  UNL1        0.1095
     18 C          61.0587   94.4479   -6.3058 C.3     1  UNL1        0.0939
     19 N          61.8936   95.6941   -6.2995 N.3     1  UNL1       -0.2695
     20 C          61.9953   96.5225   -5.0531 C.3     1  UNL1        0.0939
     21 C          61.2620   96.1047   -3.8129 C.3     1  UNL1        0.1095
     22 C          62.6269   96.1119   -7.5395 C.3     1  UNL1        0.0769
     23 C          63.9246   96.8559   -7.4287 C.3     1  UNL1        0.0437
     24 C          65.2235   96.1058   -7.4509 C.ar    1  UNL1       -0.0184
     25 C          65.2232   94.6059   -7.4675 C.ar    1  UNL1       -0.0018
     26 C          66.5219   93.8558   -7.4898 C.ar    1  UNL1        0.0316
     27 C          67.8210   94.6057   -7.4955 C.ar    1  UNL1        0.1674
     28 F          69.1199   93.8556   -7.5177 F       1  UNL1       -0.2018
     29 C          67.8213   96.1056   -7.4789 C.ar    1  UNL1        0.1671
     30 F          69.1205   96.8554   -7.4846 F       1  UNL1       -0.2018
     31 C          66.5226   96.8556   -7.4566 C.ar    1  UNL1        0.0277
     32 C          55.9620   94.0847   -1.2770 C.3     1  UNL1        0.2073
     33 C          54.0224   95.7168   -1.8467 C.3     1  UNL1        0.1747
     34 O          55.2079   94.9062   -2.2803 O.3     1  UNL1       -0.3430
@<TRIPOS>BOND
     1    33    34    1
     2    34    32    1
     3    32     1    1
     4     1     2   ar
     5     2     3   ar
     6     3    16    1
     7    16    17    1
     8    17    18    1
     9    18    19    1
    10    19    22    1
    11    22    23    1
    12    23    24    1
    13    24    25   ar
    14    25    26   ar
    15    26    27   ar
    16    27    28    1
    17    27    29   ar
    18    29    30    1
    19    29    31   ar
    20    19    20    1
    21    20    21    1
    22     3     4   ar
    23     4     5   ar
    24     5     6   ar
    25     5     7   ar
    26     7     8   ar
    27     8     9    1
    28     8    10   ar
    29    10    11   ar
    30    11    12   ar
    31    12    13   ar
    32    13    14   ar
    33    14    15    1
    34     6     1   ar
    35    13     7   ar
    36    21    16    1
    37    14     4   ar
    38    31    24   ar
@<TRIPOS>MOLECULE
*****
 34 38 0 0 0
SMALL
GASTEIGER

@<TRIPOS>ATOM
      1 C          61.2677   86.1060    9.6755 C.ar    1  UNL1        0.1704
      2 N          61.7701   87.4880    9.9713 N.ar    1  UNL1       -0.2120
      3 C          62.5859   87.7415   11.2042 C.ar    1  UNL1        0.1506
      4 C          62.8993   86.6130   12.1413 C.ar    1  UNL1        0.1100
      5 C          62.3969   85.2310   11.8455 C.ar    1  UNL1        0.1049
      6 N          61.5811   84.9774   10.6126 N.ar    1  UNL1       -0.2265
      7 C          62.8617   84.3234   12.9457 C.ar    1  UNL1        0.0635
      8 C          62.6679   82.8554   13.1850 C.ar    1  UNL1        0.1412
      9 CL         61.8782   82.0342   12.2092 Cl      1  UNL1       -0.0612
     10 N          63.2637   82.2085   14.4001 N.ar    1  UNL1       -0.2323
     11 C          64.0534   83.0297   15.3758 C.ar    1  UNL1        0.1013
     12 C          64.2472   84.4977   15.1365 C.ar    1  UNL1        0.0380
     13 C          63.6514   85.1445   13.9214 C.ar    1  UNL1        0.0654
     14 N          63.6746   86.5596   13.4243 N.ar    1  UNL1       -0.3217
     15 C          64.3540   87.7179   14.0928 C.3     1  UNL1        0.1306
     16 N          63.0884   89.1236   11.5000 N.pl3   1  UNL1       -0.2892
     17 C          63.2862   89.5616   12.9210 C.3     1  UNL1        0.1095
     18 C          63.7885   90.9436   13.2169 C.3     1  UNL1        0.0939
     19 N          64.0932   91.8877   12.0917 N.3     1  UNL1       -0.2695
     20 C          63.8954   91.4497   10.6708 C.3     1  UNL1        0.0939
     21 C          63.3930   90.0676   10.3749 C.3     1  UNL1        0.1095
     22 C          64.5956   93.2697   12.3875 C.3     1  UNL1        0.0769
     23 C          66.0693   93.5494   12.3808 C.3     1  UNL1        0.0437
     24 C          66.9136   93.1513   13.5551 C.ar    1  UNL1       -0.0184
     25 C          67.2159   91.7035   13.8050 C.ar    1  UNL1       -0.0018
     26 C          68.0602   91.3055   14.9791 C.ar    1  UNL1        0.0316
     27 C          68.6022   92.3552   15.9034 C.ar    1  UNL1        0.1674
     28 F          69.4465   91.9572   17.0776 F       1  UNL1       -0.2018
     29 C          68.2999   93.8030   15.6534 C.ar    1  UNL1        0.1671
     30 F          68.8419   94.8528   16.5777 F       1  UNL1       -0.2018
     31 C          67.4556   94.2011   14.4793 C.ar    1  UNL1        0.0277
     32 C          60.4518   85.8524    8.4425 C.3     1  UNL1        0.2073
     33 C          61.3492   84.4559    6.4439 C.3     1  UNL1        0.1747
     34 O          61.1207   85.7846    7.1015 O.3     1  UNL1       -0.3430
@<TRIPOS>BOND
     1    33    34    1
     2    34    32    1
     3    32     1    1
     4     1     2   ar
     5     2     3   ar
     6     3    16    1
     7    16    17    1
     8    17    18    1
     9    18    19    1
    10    19    22    1
    11    22    23    1
    12    23    24    1
    13    24    25   ar
    14    25    26   ar
    15    26    27   ar
    16    27    28    1
    17    27    29   ar
    18    29    30    1
    19    29    31   ar
    20    19    20    1
    21    20    21    1
    22     3     4   ar
    23     4     5   ar
    24     5     6   ar
    25     5     7   ar
    26     7     8   ar
    27     8     9    1
    28     8    10   ar
    29    10    11   ar
    30    11    12   ar
    31    12    13   ar
    32    13    14   ar
    33    14    15    1
    34     6     1   ar
    35    13     7   ar
    36    21    16    1
    37    14     4   ar
    38    31    24   ar
