@<TRIPOS>MOLECULE
*****
 32 35 0 0 0
SMALL
GASTEIGER

@<TRIPOS>ATOM
      1 C          62.9431   87.0038   12.1209 C.3     1  UNL1        0.1272
      2 C          63.3584   88.3354   12.6725 C.2     1  UNL1        0.0260
      3 C          63.2946   89.8167   12.4446 C.2     1  UNL1        0.0757
      4 N          64.0302   90.4901   13.5650 N.2     1  UNL1       -0.1569
      5 N          64.5487   89.4251   14.4853 N.2     1  UNL1       -0.1631
      6 C          64.1335   88.0934   13.9337 C.3     1  UNL1        0.2225
      7 C          64.1973   86.6122   14.1616 C.2     1  UNL1        0.2581
      8 O          64.8773   85.9251   15.3085 O.2     1  UNL1       -0.2720
      9 N          63.4616   85.9387   13.0411 N.am    1  UNL1       -0.2508
     10 C          60.7247   87.2411   10.7896 C.ar    1  UNL1        0.1366
     11 C          59.9304   87.0142    9.5375 C.ar    1  UNL1        0.0366
     12 C          60.5604   86.3232    8.3646 C.ar    1  UNL1        0.0031
     13 C          61.9846   85.8591    8.4437 C.ar    1  UNL1       -0.0001
     14 C          62.7788   86.0860    9.6959 C.ar    1  UNL1        0.0007
     15 C          62.1489   86.7770   10.8688 C.ar    1  UNL1        0.0340
     16 C          58.9089   88.8275   11.7573 C.3     1  UNL1        0.2525
     17 O          60.0947   87.9320   11.9625 O.3     1  UNL1       -0.4717
     18 C          63.2768   84.4600   12.8709 C.ar    1  UNL1        0.0544
     19 C          62.3023   83.7210   13.7393 C.ar    1  UNL1        0.0151
     20 C          62.1175   82.2422   13.5692 C.ar    1  UNL1        0.0058
     21 C          62.9073   81.5023   12.5305 C.ar    1  UNL1        0.0537
     22 C          63.8819   82.2413   11.6621 C.ar    1  UNL1        0.0058
     23 C          64.0667   83.7200   11.8323 C.ar    1  UNL1        0.0151
     24 C          62.7225   80.0235   12.3603 C.2     1  UNL1        0.2491
     25 O          62.4890   79.1538   13.5599 O.2     1  UNL1       -0.2699
     26 N          62.7713   79.4144   10.9904 N.am    1  UNL1       -0.2726
     27 C          62.5866   77.9356   10.8202 C.3     1  UNL1        0.1152
     28 C          63.0048   80.2841    9.7908 C.3     1  UNL1        0.1152
     29 C          62.6145   90.5038   11.2977 C.3     1  UNL1        0.0367
     30 C          61.4065   90.7393   12.1552 C.3     1  UNL1        0.0060
     31 C          63.8225   90.2683   10.4403 C.3     1  UNL1        0.0060
     32 C          61.9344   91.1909   10.1508 C.3     1  UNL1        0.0060
@<TRIPOS>BOND
     1    16    17    1
     2    17    10    1
     3    10    11   ar
     4    11    12   ar
     5    12    13   ar
     6    13    14   ar
     7    14    15   ar
     8    15     1    1
     9     1     2    1
    10     2     3    2
    11     3    29    1
    12    29    30    1
    13    29    31    1
    14    29    32    1
    15     3     4    1
    16     4     5    2
    17     5     6    1
    18     6     7    1
    19     7     8    2
    20     7     9   am
    21     9    18    1
    22    18    19   ar
    23    19    20   ar
    24    20    21   ar
    25    21    24    1
    26    24    25    2
    27    24    26   am
    28    26    27    1
    29    26    28    1
    30    21    22   ar
    31    22    23   ar
    32    15    10   ar
    33     9     1    1
    34    23    18   ar
    35     6     2    1
@<TRIPOS>MOLECULE
*****
 32 35 0 0 0
SMALL
GASTEIGER

@<TRIPOS>ATOM
      1 C          72.2423   73.1761   13.3957 C.3     1  UNL1        0.1272
      2 C          72.1769   72.3795   14.6650 C.2     1  UNL1        0.0260
      3 C          72.1408   70.9879   15.2239 C.2     1  UNL1        0.0757
      4 N          72.0712   71.0905   16.7187 N.2     1  UNL1       -0.1569
      5 N          72.0643   72.5454   17.0838 N.2     1  UNL1       -0.1631
      6 C          72.1297   73.3420   15.8145 C.3     1  UNL1        0.2225
      7 C          72.1658   74.7336   15.2556 C.2     1  UNL1        0.2581
      8 O          72.1373   76.0045   16.0518 O.2     1  UNL1       -0.2720
      9 N          72.2354   74.6311   13.7607 N.am    1  UNL1       -0.2508
     10 C          71.1155   71.9035   11.4308 C.ar    1  UNL1        0.1366
     11 C          71.1770   71.3436   10.0405 C.ar    1  UNL1        0.0366
     12 C          72.4266   71.4963    9.2250 C.ar    1  UNL1        0.0031
     13 C          73.6148   72.2090    9.7998 C.ar    1  UNL1       -0.0001
     14 C          73.5533   72.7689   11.1900 C.ar    1  UNL1        0.0007
     15 C          72.3037   72.6162   12.0055 C.ar    1  UNL1        0.0340
     16 C          68.8669   70.6880   11.8960 C.3     1  UNL1        0.2525
     17 O          69.8658   71.7508   12.2462 O.3     1  UNL1       -0.4717
     18 C          72.2887   75.7814   12.7996 C.ar    1  UNL1        0.0544
     19 C          71.0513   76.5808   12.5172 C.ar    1  UNL1        0.0151
     20 C          71.1046   77.7312   11.5561 C.ar    1  UNL1        0.0058
     21 C          72.3954   78.0822   10.8773 C.ar    1  UNL1        0.0537
     22 C          73.6329   77.2827   11.1597 C.ar    1  UNL1        0.0058
     23 C          73.5795   76.1324   12.1208 C.ar    1  UNL1        0.0151
     24 C          72.4488   79.2326    9.9162 C.2     1  UNL1        0.2491
     25 O          72.4286   78.9767    8.4383 O.2     1  UNL1       -0.2699
     26 N          72.5224   80.6388   10.4329 N.am    1  UNL1       -0.2726
     27 C          72.5758   81.7892    9.4719 C.3     1  UNL1        0.1152
     28 C          72.5426   80.8946   11.9109 C.3     1  UNL1        0.1152
     29 C          72.1692   69.7170   14.4277 C.3     1  UNL1        0.0367
     30 C          70.7059   69.5192   14.6911 C.3     1  UNL1        0.0060
     31 C          73.6326   69.9148   14.1643 C.3     1  UNL1        0.0060
     32 C          72.1977   68.4461   13.6315 C.3     1  UNL1        0.0060
@<TRIPOS>BOND
     1    16    17    1
     2    17    10    1
     3    10    11   ar
     4    11    12   ar
     5    12    13   ar
     6    13    14   ar
     7    14    15   ar
     8    15     1    1
     9     1     2    1
    10     2     3    2
    11     3    29    1
    12    29    30    1
    13    29    31    1
    14    29    32    1
    15     3     4    1
    16     4     5    2
    17     5     6    1
    18     6     7    1
    19     7     8    2
    20     7     9   am
    21     9    18    1
    22    18    19   ar
    23    19    20   ar
    24    20    21   ar
    25    21    24    1
    26    24    25    2
    27    24    26   am
    28    26    27    1
    29    26    28    1
    30    21    22   ar
    31    22    23   ar
    32    15    10   ar
    33     9     1    1
    34    23    18   ar
    35     6     2    1
@<TRIPOS>MOLECULE
*****
 32 35 0 0 0
SMALL
GASTEIGER

@<TRIPOS>ATOM
      1 C          62.8909   86.9041   12.1878 C.3     1  UNL1        0.1272
      2 C          63.3187   88.2354   12.7304 C.2     1  UNL1        0.0260
      3 C          63.2188   89.7181   12.5259 C.2     1  UNL1        0.0757
      4 N          64.0110   90.3896   13.6083 N.2     1  UNL1       -0.1569
      5 N          64.6005   89.3220   14.4816 N.2     1  UNL1       -0.1631
      6 C          64.1727   87.9906   13.9390 C.3     1  UNL1        0.2225
      7 C          64.2726   86.5080   14.1435 C.2     1  UNL1        0.2581
      8 O          65.0315   85.8180   15.2380 O.2     1  UNL1       -0.2720
      9 N          63.4804   85.8364   13.0611 N.am    1  UNL1       -0.2508
     10 C          62.4774   85.7479    9.8982 C.ar    1  UNL1        0.1366
     11 C          61.6119   85.5235    8.6937 C.ar    1  UNL1        0.0366
     12 C          60.2945   86.2309    8.5744 C.ar    1  UNL1        0.0031
     13 C          59.8426   87.1626    9.6596 C.ar    1  UNL1       -0.0001
     14 C          60.7081   87.3870   10.8641 C.ar    1  UNL1        0.0007
     15 C          62.0255   86.6797   10.9833 C.ar    1  UNL1        0.0340
     16 C          63.9831   83.6942    9.3834 C.3     1  UNL1        0.2525
     17 O          63.7947   85.0405   10.0174 O.3     1  UNL1       -0.4717
     18 C          63.3080   84.3571   12.8833 C.ar    1  UNL1        0.0544
     19 C          61.9316   83.7683   12.7892 C.ar    1  UNL1        0.0151
     20 C          61.7591   82.2889   12.6114 C.ar    1  UNL1        0.0058
     21 C          62.9631   81.3982   12.5277 C.ar    1  UNL1        0.0537
     22 C          64.3396   81.9870   12.6218 C.ar    1  UNL1        0.0058
     23 C          64.5120   83.4663   12.7996 C.ar    1  UNL1        0.0151
     24 C          62.7908   79.9188   12.3499 C.2     1  UNL1        0.2491
     25 O          62.5978   79.0369   13.5478 O.2     1  UNL1       -0.2699
     26 N          62.8114   79.3213   10.9742 N.am    1  UNL1       -0.2726
     27 C          62.6390   77.8419   10.7964 C.3     1  UNL1        0.1152
     28 C          63.0044   80.2033    9.7763 C.3     1  UNL1        0.1152
     29 C          62.4599   90.4080   11.4314 C.3     1  UNL1        0.0367
     30 C          61.1714   90.1202   12.1433 C.3     1  UNL1        0.0060
     31 C          63.7484   90.6959   10.7195 C.3     1  UNL1        0.0060
     32 C          61.7010   91.0980   10.3368 C.3     1  UNL1        0.0060
@<TRIPOS>BOND
     1    16    17    1
     2    17    10    1
     3    10    11   ar
     4    11    12   ar
     5    12    13   ar
     6    13    14   ar
     7    14    15   ar
     8    15     1    1
     9     1     2    1
    10     2     3    2
    11     3    29    1
    12    29    30    1
    13    29    31    1
    14    29    32    1
    15     3     4    1
    16     4     5    2
    17     5     6    1
    18     6     7    1
    19     7     8    2
    20     7     9   am
    21     9    18    1
    22    18    19   ar
    23    19    20   ar
    24    20    21   ar
    25    21    24    1
    26    24    25    2
    27    24    26   am
    28    26    27    1
    29    26    28    1
    30    21    22   ar
    31    22    23   ar
    32    15    10   ar
    33     9     1    1
    34    23    18   ar
    35     6     2    1
@<TRIPOS>MOLECULE
*****
 32 35 0 0 0
SMALL
GASTEIGER

@<TRIPOS>ATOM
      1 C          72.3719   72.3012   15.2573 C.3     1  UNL1        0.1272
      2 C          72.2827   70.8952   14.7422 C.2     1  UNL1        0.0260
      3 C          72.1713   69.4570   15.1535 C.2     1  UNL1        0.0757
      4 N          72.1383   68.6203   13.9090 N.2     1  UNL1       -0.1569
      5 N          72.2292   69.5414   12.7286 N.2     1  UNL1       -0.1631
      6 C          72.3185   70.9474   13.2436 C.3     1  UNL1        0.2225
      7 C          72.4299   72.3856   12.8323 C.2     1  UNL1        0.2581
      8 O          72.4965   72.8973   11.4239 O.2     1  UNL1       -0.2720
      9 N          72.4629   73.2224   14.0769 N.am    1  UNL1       -0.2508
     10 C          71.1190   73.2569   17.3229 C.ar    1  UNL1        0.1366
     11 C          71.1176   73.6694   18.7651 C.ar    1  UNL1        0.0366
     12 C          72.3676   73.5387   19.5838 C.ar    1  UNL1        0.0031
     13 C          73.6191   72.9955   18.9603 C.ar    1  UNL1       -0.0001
     14 C          73.6205   72.5830   17.5181 C.ar    1  UNL1        0.0007
     15 C          72.3705   72.7137   16.6994 C.ar    1  UNL1        0.0340
     16 C          69.4362   74.7347   16.0058 C.3     1  UNL1        0.2525
     17 O          69.8689   73.3876   16.5042 O.3     1  UNL1       -0.4717
     18 C          72.5684   74.7176   14.1314 C.ar    1  UNL1        0.0544
     19 C          71.7151   75.5630   13.2330 C.ar    1  UNL1        0.0151
     20 C          71.8205   77.0583   13.2875 C.ar    1  UNL1        0.0058
     21 C          72.7793   77.7082   14.2406 C.ar    1  UNL1        0.0537
     22 C          73.6327   76.8628   15.1391 C.ar    1  UNL1        0.0058
     23 C          73.5272   75.3676   15.0845 C.ar    1  UNL1        0.0151
     24 C          72.8848   79.2035   14.2951 C.2     1  UNL1        0.2491
     25 O          72.5635   79.9322   15.5663 O.2     1  UNL1       -0.2699
     26 N          73.3116   79.9702   13.0786 N.am    1  UNL1       -0.2726
     27 C          73.4171   81.4654   13.1331 C.3     1  UNL1        0.1152
     28 C          73.6329   79.2414   11.8074 C.3     1  UNL1        0.1152
     29 C          72.1046   68.9453   16.5619 C.3     1  UNL1        0.0367
     30 C          73.4398   68.2849   16.3852 C.3     1  UNL1        0.0060
     31 C          70.7695   69.6058   16.7387 C.3     1  UNL1        0.0060
     32 C          72.0380   68.4337   17.9704 C.3     1  UNL1        0.0060
@<TRIPOS>BOND
     1    16    17    1
     2    17    10    1
     3    10    11   ar
     4    11    12   ar
     5    12    13   ar
     6    13    14   ar
     7    14    15   ar
     8    15     1    1
     9     1     2    1
    10     2     3    2
    11     3    29    1
    12    29    30    1
    13    29    31    1
    14    29    32    1
    15     3     4    1
    16     4     5    2
    17     5     6    1
    18     6     7    1
    19     7     8    2
    20     7     9   am
    21     9    18    1
    22    18    19   ar
    23    19    20   ar
    24    20    21   ar
    25    21    24    1
    26    24    25    2
    27    24    26   am
    28    26    27    1
    29    26    28    1
    30    21    22   ar
    31    22    23   ar
    32    15    10   ar
    33     9     1    1
    34    23    18   ar
    35     6     2    1
@<TRIPOS>MOLECULE
*****
 32 35 0 0 0
SMALL
GASTEIGER

@<TRIPOS>ATOM
      1 C          63.1678   85.2198   12.9596 C.3     1  UNL1        0.1272
      2 C          63.0470   84.1333   13.9867 C.2     1  UNL1        0.0260
      3 C          62.8271   82.6617   14.1763 C.2     1  UNL1        0.0757
      4 N          62.8516   82.3753   15.6485 N.2     1  UNL1       -0.1569
      5 N          63.0866   83.6699   16.3687 N.2     1  UNL1       -0.1631
      6 C          63.2074   84.7564   15.3417 C.3     1  UNL1        0.2225
      7 C          63.4274   86.2280   15.1521 C.2     1  UNL1        0.2581
      8 O          63.6353   87.2362   16.2431 O.2     1  UNL1       -0.2720
      9 N          63.4029   86.5145   13.6798 N.am    1  UNL1       -0.2508
     10 C          61.9422   85.6763   10.7147 C.ar    1  UNL1        0.1366
     11 C          61.8451   85.4992    9.2283 C.ar    1  UNL1        0.0366
     12 C          62.8763   84.6888    8.5005 C.ar    1  UNL1        0.0031
     13 C          64.0048   84.0554    9.2591 C.ar    1  UNL1       -0.0001
     14 C          64.1019   84.2324   10.7455 C.ar    1  UNL1        0.0007
     15 C          63.0706   85.0428   11.4733 C.ar    1  UNL1        0.0340
     16 C          60.1236   87.5317   10.7089 C.3     1  UNL1        0.2525
     17 O          60.9109   86.4867   11.4425 O.3     1  UNL1       -0.4717
     18 C          63.5820   87.8593   13.0402 C.ar    1  UNL1        0.0544
     19 C          64.2699   88.9611   13.7905 C.ar    1  UNL1        0.0151
     20 C          64.4490   90.3060   13.1508 C.ar    1  UNL1        0.0058
     21 C          63.9403   90.5491   11.7608 C.ar    1  UNL1        0.0537
     22 C          63.2525   89.4473   11.0105 C.ar    1  UNL1        0.0058
     23 C          63.0733   88.1025   11.6501 C.ar    1  UNL1        0.0151
     24 C          64.1195   91.8940   11.1211 C.2     1  UNL1        0.2491
     25 O          63.2121   92.3207   10.0055 O.2     1  UNL1       -0.2699
     26 N          65.2059   92.8122   11.5971 N.am    1  UNL1       -0.2726
     27 C          65.3851   94.1570   10.9574 C.3     1  UNL1        0.1152
     28 C          66.1133   92.3854   12.7127 C.3     1  UNL1        0.1152
     29 C          62.6192   81.6535   13.0853 C.3     1  UNL1        0.0367
     30 C          61.1952   81.4749   13.5217 C.3     1  UNL1        0.0060
     31 C          64.0431   81.8321   12.6489 C.3     1  UNL1        0.0060
     32 C          62.4113   80.6453   11.9943 C.3     1  UNL1        0.0060
@<TRIPOS>BOND
     1    16    17    1
     2    17    10    1
     3    10    11   ar
     4    11    12   ar
     5    12    13   ar
     6    13    14   ar
     7    14    15   ar
     8    15     1    1
     9     1     2    1
    10     2     3    2
    11     3    29    1
    12    29    30    1
    13    29    31    1
    14    29    32    1
    15     3     4    1
    16     4     5    2
    17     5     6    1
    18     6     7    1
    19     7     8    2
    20     7     9   am
    21     9    18    1
    22    18    19   ar
    23    19    20   ar
    24    20    21   ar
    25    21    24    1
    26    24    25    2
    27    24    26   am
    28    26    27    1
    29    26    28    1
    30    21    22   ar
    31    22    23   ar
    32    15    10   ar
    33     9     1    1
    34    23    18   ar
    35     6     2    1
