@<TRIPOS>MOLECULE
*****
 39 42 0 0 0
SMALL
GASTEIGER

@<TRIPOS>ATOM
      1 C          62.1936   87.8851   10.3842 C.3     1  UNL1        0.1678
      2 C          62.4717   89.1073   11.2082 C.2     1  UNL1        0.2492
      3 O          62.1146   90.4172   10.5707 O.2     1  UNL1       -0.2727
      4 N          63.0599   89.1927   12.5854 N.am    1  UNL1       -0.2501
      5 C          63.5152   88.0771   13.4789 C.ar    1  UNL1        0.0679
      6 C          64.0438   88.5994   14.7818 C.ar    1  UNL1        0.0162
      7 C          64.5520   87.6451   15.8215 C.ar    1  UNL1        0.0014
      8 C          64.5315   86.1685   15.5584 C.ar    1  UNL1        0.0014
      9 C          64.0028   85.6462   14.2554 C.ar    1  UNL1        0.0162
     10 C          63.4947   86.6005   13.2157 C.ar    1  UNL1        0.0676
     11 N          63.0138   85.8749   11.9941 N.am    1  UNL1       -0.2556
     12 C          63.1271   84.3798   12.0385 C.2     1  UNL1        0.2535
     13 O          62.6743   83.5582   10.8680 O.2     1  UNL1       -0.2726
     14 C          62.4348   86.4465   10.7340 C.3     1  UNL1        0.1067
     15 C          62.0455   85.4476    9.6849 C.3     1  UNL1        0.0242
     16 C          60.1296   88.4280    8.9025 C.2     1  UNL1        0.2371
     17 O          59.2629   88.4721   10.1260 O.2     1  UNL1       -0.2737
     18 N          61.5949   88.1345    9.0317 N.am    1  UNL1       -0.2959
     19 H          62.1638   88.1055    8.2287 H       1  UNL1        0.1499
     20 C          59.5310   88.6773    7.5500 C.3     1  UNL1        0.1316
     21 C          58.7967   87.5784    6.8406 C.3     1  UNL1        0.0270
     22 C          58.8238   90.3771    5.7168 C.3     1  UNL1        0.0862
     23 N          59.6667   90.0256    6.9067 N.3     1  UNL1       -0.2902
     24 H          59.4619   90.7176    7.6275 H       1  UNL1        0.1237
     25 C          63.2131   90.5767   13.1430 C.3     1  UNL1        0.1473
     26 C          64.4764   91.3480   12.8991 C.ar    1  UNL1        0.1209
     27 N          65.0397   91.7162   11.5586 N.ar    1  UNL1       -0.0796
     28 O          66.3095   92.4822   11.7840 O.2     1  UNL1       -0.3537
     29 C          66.5310   92.5873   13.2638 C.ar    1  UNL1        0.1766
     30 C          67.6180   93.2309   14.0728 C.ar    1  UNL1        0.0402
     31 C          67.5720   93.1734   15.5710 C.ar    1  UNL1        0.0032
     32 C          66.4390   92.4724   16.2601 C.ar    1  UNL1        0.0002
     33 C          65.3521   91.8289   15.4512 C.ar    1  UNL1        0.0045
     34 C          65.3981   91.8864   13.9530 C.ar    1  UNL1        0.0556
     35 C          63.6931   83.7062   13.2534 C.3     1  UNL1        0.2357
     36 S          63.4064   82.2562   13.5090 S.O2    1  UNL1        0.0007
     37 C          63.1196   80.8063   13.7647 C.3     1  UNL1        0.1766
     38 O          64.6276   81.8766   12.7252 O.2     1  UNL1       -0.1725
     39 O          62.1852   82.6359   14.2929 O.2     1  UNL1       -0.1725
@<TRIPOS>BOND
     1    22    23    1
     2    23    20    1
     3    20    21    1
     4    20    16    1
     5    16    17    2
     6    16    18   am
     7     1    18    1
     8     1     2    1
     9     2     3    2
    10     2     4   am
    11     4    25    1
    12    25    26    1
    13    26    27   ar
    14    27    28   ar
    15    28    29   ar
    16    29    30   ar
    17    30    31   ar
    18    31    32   ar
    19    32    33   ar
    20    33    34   ar
    21     4     5    1
    22     5     6   ar
    23     6     7   ar
    24     7     8   ar
    25     8     9   ar
    26     9    10   ar
    27    10    11    1
    28    11    12   am
    29    12    13    2
    30    12    35    1
    31    35    36    1
    32    36    37    1
    33    36    38    2
    34    36    39    2
    35    11    14    1
    36    14    15    1
    37    14     1    1
    38    34    26   ar
    39    10     5   ar
    40    34    29   ar
    41    23    24    1
    42    18    19    1
@<TRIPOS>MOLECULE
*****
 39 42 0 0 0
SMALL
GASTEIGER

@<TRIPOS>ATOM
      1 C          61.9296   87.1789   10.6065 C.3     1  UNL1        0.1678
      2 C          62.3191   86.1769   11.6526 C.2     1  UNL1        0.2492
      3 O          61.8522   84.7716   11.4136 O.2     1  UNL1       -0.2727
      4 N          63.1138   86.3944   12.9060 N.am    1  UNL1       -0.2501
      5 C          63.7152   87.6676   13.4230 C.ar    1  UNL1        0.0679
      6 C          64.4346   87.4466   14.7205 C.ar    1  UNL1        0.0162
      7 C          65.1093   88.5957   15.4092 C.ar    1  UNL1        0.0014
      8 C          65.0646   89.9658   14.8004 C.ar    1  UNL1        0.0014
      9 C          64.3452   90.1869   13.5029 C.ar    1  UNL1        0.0162
     10 C          63.6705   89.0378   12.8142 C.ar    1  UNL1        0.0676
     11 N          63.0133   89.4731   11.5380 N.am    1  UNL1       -0.2556
     12 C          63.1488   90.9282   11.1997 C.2     1  UNL1        0.2535
     13 O          62.5283   91.4674    9.9449 O.2     1  UNL1       -0.2726
     14 C          62.2385   88.6459   10.5555 C.3     1  UNL1        0.1067
     15 C          61.7017   89.3830    9.3646 C.3     1  UNL1        0.0242
     16 C          61.8035   85.8910    8.3537 C.2     1  UNL1        0.2371
     17 O          63.2873   85.6746    8.3943 O.2     1  UNL1       -0.2737
     18 N          61.1247   86.6431    9.4598 N.am    1  UNL1       -0.2959
     19 H          60.1508   86.7851    9.4331 H       1  UNL1        0.1499
     20 C          60.9986   85.3551    7.2069 C.3     1  UNL1        0.1316
     21 C          61.6694   84.5590    6.1270 C.3     1  UNL1        0.0270
     22 C          58.9789   86.9557    7.5372 C.3     1  UNL1        0.0862
     23 N          59.5229   85.6154    7.1401 N.3     1  UNL1       -0.2902
     24 H          59.2395   85.4573    6.1731 H       1  UNL1        0.1237
     25 C          63.3365   85.1779   13.7548 C.3     1  UNL1        0.1473
     26 C          63.6338   83.8570   13.1090 C.ar    1  UNL1        0.1209
     27 N          64.7266   83.5863   12.1179 N.ar    1  UNL1       -0.0796
     28 O          64.6587   82.1370   11.7372 O.2     1  UNL1       -0.3537
     29 C          63.5238   81.5120   12.4932 C.ar    1  UNL1        0.1766
     30 C          62.9853   80.1121   12.5190 C.ar    1  UNL1        0.0402
     31 C          61.8134   79.7754   13.3927 C.ar    1  UNL1        0.0032
     32 C          61.1800   80.8385   14.2404 C.ar    1  UNL1        0.0002
     33 C          61.7184   82.2383   14.2146 C.ar    1  UNL1        0.0045
     34 C          62.8903   82.5750   13.3409 C.ar    1  UNL1        0.0556
     35 C          63.9048   91.8441   12.1160 C.3     1  UNL1        0.2357
     36 S          65.1569   92.5174   11.6377 S.O2    1  UNL1        0.0007
     37 C          66.4090   93.1908   11.1595 C.3     1  UNL1        0.1766
     38 O          64.9499   91.9323   10.2721 O.2     1  UNL1       -0.1725
     39 O          65.3638   93.1025   13.0033 O.2     1  UNL1       -0.1725
@<TRIPOS>BOND
     1    22    23    1
     2    23    20    1
     3    20    21    1
     4    20    16    1
     5    16    17    2
     6    16    18   am
     7     1    18    1
     8     1     2    1
     9     2     3    2
    10     2     4   am
    11     4    25    1
    12    25    26    1
    13    26    27   ar
    14    27    28   ar
    15    28    29   ar
    16    29    30   ar
    17    30    31   ar
    18    31    32   ar
    19    32    33   ar
    20    33    34   ar
    21     4     5    1
    22     5     6   ar
    23     6     7   ar
    24     7     8   ar
    25     8     9   ar
    26     9    10   ar
    27    10    11    1
    28    11    12   am
    29    12    13    2
    30    12    35    1
    31    35    36    1
    32    36    37    1
    33    36    38    2
    34    36    39    2
    35    11    14    1
    36    14    15    1
    37    14     1    1
    38    34    26   ar
    39    10     5   ar
    40    34    29   ar
    41    23    24    1
    42    18    19    1
@<TRIPOS>MOLECULE
*****
 39 42 0 0 0
SMALL
GASTEIGER

@<TRIPOS>ATOM
      1 C          62.8380   90.3578   12.3728 C.3     1  UNL1        0.1678
      2 C          62.8857   90.0203   13.8336 C.2     1  UNL1        0.2492
      3 O          61.8775   89.0134   14.3022 O.2     1  UNL1       -0.2727
      4 N          63.8084   90.5566   14.8876 N.am    1  UNL1       -0.2501
      5 C          64.9112   91.5628   14.7414 C.ar    1  UNL1        0.0679
      6 C          65.5939   91.8220   16.0516 C.ar    1  UNL1        0.0162
      7 C          66.7292   92.7995   16.1252 C.ar    1  UNL1        0.0014
      8 C          67.1817   93.5180   14.8886 C.ar    1  UNL1        0.0014
      9 C          66.4989   93.2588   13.5784 C.ar    1  UNL1        0.0162
     10 C          65.3637   92.2813   13.5048 C.ar    1  UNL1        0.0676
     11 N          64.8251   92.1709   12.1092 N.am    1  UNL1       -0.2556
     12 C          65.4999   93.0302   11.0814 C.2     1  UNL1        0.2535
     13 O          65.0382   92.9955    9.6546 O.2     1  UNL1       -0.2726
     14 C          63.7011   91.3149   11.6053 C.3     1  UNL1        0.1067
     15 C          63.4005   91.4314   10.1404 C.3     1  UNL1        0.0242
     16 C          61.9553   88.1896   11.2460 C.2     1  UNL1        0.2371
     17 O          63.1719   87.4494   11.7172 O.2     1  UNL1       -0.2737
     18 N          61.7883   89.6438   11.5738 N.am    1  UNL1       -0.2959
     19 H          60.9898   90.1296   11.2646 H       1  UNL1        0.1499
     20 C          60.9056   87.4756   10.4470 C.3     1  UNL1        0.1316
     21 C          60.9959   85.9917   10.2464 C.3     1  UNL1        0.0270
     22 C          59.8023   88.6356    8.4009 C.3     1  UNL1        0.0862
     23 N          59.7657   88.2453    9.8487 N.3     1  UNL1       -0.2902
     24 H          58.9272   87.6794    9.9800 H       1  UNL1        0.1237
     25 C          63.6008   90.0151   16.2710 C.3     1  UNL1        0.1473
     26 C          63.1340   88.6022   16.4611 C.ar    1  UNL1        0.1209
     27 N          61.9658   88.1642   17.2938 N.ar    1  UNL1       -0.0796
     28 O          61.8633   86.6707   17.1993 O.2     1  UNL1       -0.3537
     29 C          62.9682   86.1857   16.3082 C.ar    1  UNL1        0.1766
     30 C          63.3607   84.8112   15.8533 C.ar    1  UNL1        0.0402
     31 C          64.5385   84.6306   14.9422 C.ar    1  UNL1        0.0032
     32 C          65.3238   85.8244   14.4861 C.ar    1  UNL1        0.0002
     33 C          64.9314   87.1988   14.9409 C.ar    1  UNL1        0.0045
     34 C          63.7536   87.3794   15.8520 C.ar    1  UNL1        0.0556
     35 C          66.6363   93.9244   11.4804 C.3     1  UNL1        0.2357
     36 S          66.9490   95.1470   10.6695 S.O2    1  UNL1        0.0007
     37 C          67.2617   96.3695    9.8587 C.3     1  UNL1        0.1766
     38 O          65.9003   95.9130   11.4203 O.2     1  UNL1       -0.1725
     39 O          67.9976   94.3809    9.9189 O.2     1  UNL1       -0.1725
@<TRIPOS>BOND
     1    22    23    1
     2    23    20    1
     3    20    21    1
     4    20    16    1
     5    16    17    2
     6    16    18   am
     7     1    18    1
     8     1     2    1
     9     2     3    2
    10     2     4   am
    11     4    25    1
    12    25    26    1
    13    26    27   ar
    14    27    28   ar
    15    28    29   ar
    16    29    30   ar
    17    30    31   ar
    18    31    32   ar
    19    32    33   ar
    20    33    34   ar
    21     4     5    1
    22     5     6   ar
    23     6     7   ar
    24     7     8   ar
    25     8     9   ar
    26     9    10   ar
    27    10    11    1
    28    11    12   am
    29    12    13    2
    30    12    35    1
    31    35    36    1
    32    36    37    1
    33    36    38    2
    34    36    39    2
    35    11    14    1
    36    14    15    1
    37    14     1    1
    38    34    26   ar
    39    10     5   ar
    40    34    29   ar
    41    23    24    1
    42    18    19    1
@<TRIPOS>MOLECULE
*****
 39 42 0 0 0
SMALL
GASTEIGER

@<TRIPOS>ATOM
      1 C          62.0468   88.6992    9.9022 C.3     1  UNL1        0.1678
      2 C          61.8574   87.2195   10.0598 C.2     1  UNL1        0.2492
      3 O          61.1415   86.5316    8.9356 O.2     1  UNL1       -0.2727
      4 N          62.2895   86.3370   11.1931 N.am    1  UNL1       -0.2501
      5 C          63.0175   86.7159   12.4487 C.ar    1  UNL1        0.0679
      6 C          63.2574   85.5222   13.3246 C.ar    1  UNL1        0.0162
      7 C          63.9732   85.6836   14.6329 C.ar    1  UNL1        0.0014
      8 C          64.4490   87.0389   15.0652 C.ar    1  UNL1        0.0014
      9 C          64.2091   88.2327   14.1893 C.ar    1  UNL1        0.0162
     10 C          63.4934   88.0712   12.8810 C.ar    1  UNL1        0.0676
     11 N          63.3586   89.3821   12.1645 N.am    1  UNL1       -0.2556
     12 C          63.9453   90.5708   12.8667 C.2     1  UNL1        0.2535
     13 O          63.8645   91.9295   12.2363 O.2     1  UNL1       -0.2726
     14 C          62.7149   89.6617   10.8389 C.3     1  UNL1        0.1067
     15 C          62.7429   91.0928   10.3906 C.3     1  UNL1        0.0242
     16 C          60.0628   89.0583    8.2637 C.2     1  UNL1        0.2371
     17 O          59.1822   88.2254    9.1474 O.2     1  UNL1       -0.2737
     18 N          61.4950   89.2952    8.6411 N.am    1  UNL1       -0.2959
     19 H          62.0730   89.8418    8.0611 H       1  UNL1        0.1499
     20 C          59.5110   89.6543    7.0026 C.3     1  UNL1        0.1316
     21 C          58.0864   89.3947    6.6111 C.3     1  UNL1        0.0270
     22 C          59.7817   91.2889    5.0014 C.3     1  UNL1        0.0862
     23 N          60.3838   90.5099    6.1331 N.3     1  UNL1       -0.2902
     24 H          60.8385   91.1860    6.7467 H       1  UNL1        0.1237
     25 C          61.9484   84.8830   11.0523 C.3     1  UNL1        0.1473
     26 C          62.9767   83.8374   11.3676 C.ar    1  UNL1        0.1209
     27 N          64.3386   83.7254   10.7490 N.ar    1  UNL1       -0.0796
     28 O          65.0272   82.5391   11.3559 O.2     1  UNL1       -0.3537
     29 C          64.0909   81.9179   12.3496 C.ar    1  UNL1        0.1766
     30 C          64.2286   80.7252   13.2489 C.ar    1  UNL1        0.0402
     31 C          63.0990   80.3350   14.1553 C.ar    1  UNL1        0.0032
     32 C          61.8317   81.1375   14.1625 C.ar    1  UNL1        0.0002
     33 C          61.6940   82.3301   13.2633 C.ar    1  UNL1        0.0045
     34 C          62.8236   82.7203   12.3569 C.ar    1  UNL1        0.0556
     35 C          64.6128   90.4007   14.1992 C.3     1  UNL1        0.2357
     36 S          65.3542   91.5483   14.8185 S.O2    1  UNL1        0.0007
     37 C          66.0956   92.6957   15.4377 C.3     1  UNL1        0.1766
     38 O          64.1717   91.8397   15.6941 O.2     1  UNL1       -0.1725
     39 O          66.5367   91.2567   13.9428 O.2     1  UNL1       -0.1725
@<TRIPOS>BOND
     1    22    23    1
     2    23    20    1
     3    20    21    1
     4    20    16    1
     5    16    17    2
     6    16    18   am
     7     1    18    1
     8     1     2    1
     9     2     3    2
    10     2     4   am
    11     4    25    1
    12    25    26    1
    13    26    27   ar
    14    27    28   ar
    15    28    29   ar
    16    29    30   ar
    17    30    31   ar
    18    31    32   ar
    19    32    33   ar
    20    33    34   ar
    21     4     5    1
    22     5     6   ar
    23     6     7   ar
    24     7     8   ar
    25     8     9   ar
    26     9    10   ar
    27    10    11    1
    28    11    12   am
    29    12    13    2
    30    12    35    1
    31    35    36    1
    32    36    37    1
    33    36    38    2
    34    36    39    2
    35    11    14    1
    36    14    15    1
    37    14     1    1
    38    34    26   ar
    39    10     5   ar
    40    34    29   ar
    41    23    24    1
    42    18    19    1
@<TRIPOS>MOLECULE
*****
 39 42 0 0 0
SMALL
GASTEIGER

@<TRIPOS>ATOM
      1 C          62.4991   88.6514   12.6530 C.3     1  UNL1        0.1678
      2 C          63.1641   87.3167   12.8154 C.2     1  UNL1        0.2492
      3 O          63.8930   87.1058   14.1092 O.2     1  UNL1       -0.2727
      4 N          63.1963   86.1650   11.8549 N.am    1  UNL1       -0.2501
      5 C          62.5717   86.0635   10.4949 C.ar    1  UNL1        0.0679
      6 C          62.8456   84.7305    9.8641 C.ar    1  UNL1        0.0162
      7 C          62.3084   84.4227    8.4979 C.ar    1  UNL1        0.0014
      8 C          61.4972   85.4480    7.7625 C.ar    1  UNL1        0.0014
      9 C          61.2232   86.7810    8.3933 C.ar    1  UNL1        0.0162
     10 C          61.7605   87.0888    9.7595 C.ar    1  UNL1        0.0676
     11 N          61.3736   88.4687   10.2025 N.am    1  UNL1       -0.2556
     12 C          60.5489   89.2574    9.2289 C.2     1  UNL1        0.2535
     13 O          60.1086   90.6492    9.5739 O.2     1  UNL1       -0.2726
     14 C          61.7023   89.1642   11.4902 C.3     1  UNL1        0.1067
     15 C          61.1629   90.5563   11.6341 C.3     1  UNL1        0.0242
     16 C          63.9440   90.3318   14.0090 C.2     1  UNL1        0.2371
     17 O          65.0848   90.1176   13.0589 O.2     1  UNL1       -0.2737
     18 N          62.6512   89.5988   13.8060 N.am    1  UNL1       -0.2959
     19 H          61.9024   89.7394   14.4296 H       1  UNL1        0.1499
     20 C          64.0960   91.2792   15.1620 C.3     1  UNL1        0.1316
     21 C          63.3268   91.0482   16.4289 C.3     1  UNL1        0.0270
     22 C          66.4333   92.3518   15.5314 C.3     1  UNL1        0.0862
     23 N          65.0172   92.4575   15.0481 N.3     1  UNL1       -0.2902
     24 H          65.0611   92.7023   14.0589 H       1  UNL1        0.1237
     25 C          63.9533   84.9546   12.3153 C.3     1  UNL1        0.1473
     26 C          63.3082   83.9788   13.2542 C.ar    1  UNL1        0.1209
     27 N          62.8515   84.2711   14.6528 N.ar    1  UNL1       -0.0796
     28 O          62.2675   83.0123   15.2223 O.2     1  UNL1       -0.3537
     29 C          62.3633   81.9420   14.1758 C.ar    1  UNL1        0.1766
     30 C          61.9480   80.5006   14.1733 C.ar    1  UNL1        0.0402
     31 C          62.1758   79.6566   12.9543 C.ar    1  UNL1        0.0032
     32 C          62.8190   80.2540   11.7380 C.ar    1  UNL1        0.0002
     33 C          63.2343   81.6953   11.7405 C.ar    1  UNL1        0.0045
     34 C          63.0065   82.5393   12.9594 C.ar    1  UNL1        0.0556
     35 C          60.1645   88.6544    7.9103 C.3     1  UNL1        0.2357
     36 S          59.2899   89.4198    6.9620 S.O2    1  UNL1        0.0007
     37 C          58.4155   90.1853    6.0138 C.3     1  UNL1        0.1766
     38 O          58.1264   88.5482    7.3316 O.2     1  UNL1       -0.1725
     39 O          60.4535   90.2914    6.5926 O.2     1  UNL1       -0.1725
@<TRIPOS>BOND
     1    22    23    1
     2    23    20    1
     3    20    21    1
     4    20    16    1
     5    16    17    2
     6    16    18   am
     7     1    18    1
     8     1     2    1
     9     2     3    2
    10     2     4   am
    11     4    25    1
    12    25    26    1
    13    26    27   ar
    14    27    28   ar
    15    28    29   ar
    16    29    30   ar
    17    30    31   ar
    18    31    32   ar
    19    32    33   ar
    20    33    34   ar
    21     4     5    1
    22     5     6   ar
    23     6     7   ar
    24     7     8   ar
    25     8     9   ar
    26     9    10   ar
    27    10    11    1
    28    11    12   am
    29    12    13    2
    30    12    35    1
    31    35    36    1
    32    36    37    1
    33    36    38    2
    34    36    39    2
    35    11    14    1
    36    14    15    1
    37    14     1    1
    38    34    26   ar
    39    10     5   ar
    40    34    29   ar
    41    23    24    1
    42    18    19    1
