@<TRIPOS>MOLECULE
*****
 27 29 0 0 0
SMALL
GASTEIGER

@<TRIPOS>ATOM
      1 C          63.5265   85.0717   13.5890 C.3     1  UNL1        0.0644
      2 N          63.1540   85.4431   14.9937 N.3     1  UNL1       -0.3215
      3 H          63.6168   84.8108   15.6467 H       1  UNL1        0.1188
      4 H          62.1431   85.3698   15.1081 H       1  UNL1        0.1188
      5 C          62.9735   85.8539   12.4347 C.3     1  UNL1        0.1011
      6 C          62.3913   89.6384   11.2269 C.3     1  UNL1        0.1672
      7 C          61.5404   90.0036   10.0467 C.3     1  UNL1        0.0372
      8 C          60.9942   88.7362    9.4591 C.3     1  UNL1        0.0210
      9 C          60.1308   88.1786    8.3665 C.3     1  UNL1        0.0018
     10 C          60.1104   86.6855    8.5083 C.3     1  UNL1        0.0018
     11 C          60.9612   86.3202    9.6885 C.3     1  UNL1        0.0198
     12 C          61.5074   87.5877   10.2761 C.3     1  UNL1        0.0763
     13 N          62.3708   88.1452   11.3686 N.am    1  UNL1       -0.2701
     14 C          63.0879   87.3494   12.4186 C.2     1  UNL1        0.2276
     15 O          63.9196   88.0491   13.4525 O.2     1  UNL1       -0.2748
     16 N          63.8734   91.5573   12.9934 N.1     1  UNL1       -0.1942
     17 C          63.1323   90.5978   12.1101 C.1     1  UNL1        0.0925
     18 C          64.4520   83.9181   13.3385 C.3     1  UNL1        0.0447
     19 C          63.9516   82.6959   12.6273 C.ar    1  UNL1        0.0090
     20 C          63.2671   81.6067   13.3989 C.ar    1  UNL1        0.0300
     21 C          62.7668   80.3845   12.6877 C.ar    1  UNL1        0.1672
     22 F          62.0823   79.2953   13.4592 F       1  UNL1       -0.2018
     23 C          62.9509   80.2514   11.2050 C.ar    1  UNL1        0.1696
     24 F          62.4506   79.0292   10.4938 F       1  UNL1       -0.2017
     25 C          63.6354   81.3406   10.4335 C.ar    1  UNL1        0.0612
     26 C          64.1357   82.5628   11.1447 C.ar    1  UNL1        0.1386
     27 F          64.8202   83.6520   10.3732 F       1  UNL1       -0.2044
@<TRIPOS>BOND
     1    16    17    3
     2     6    17    1
     3     6     7    1
     4     8     7    1
     5     8     9    1
     6     9    10    1
     7    10    11    1
     8    12    11    1
     9    12    13    1
    10    13    14   am
    11    14    15    2
    12    14     5    1
    13     5     1    1
    14     1     2    1
    15     1    18    1
    16    18    19    1
    17    19    20   ar
    18    20    21   ar
    19    21    22    1
    20    21    23   ar
    21    23    24    1
    22    23    25   ar
    23    25    26   ar
    24    26    27    1
    25    13     6    1
    26    26    19   ar
    27    12     8    1
    28     2     3    1
    29     2     4    1
@<TRIPOS>MOLECULE
*****
 27 29 0 0 0
SMALL
GASTEIGER

@<TRIPOS>ATOM
      1 C          63.7832   89.0059   15.3306 C.3     1  UNL1        0.0644
      2 N          63.1502   88.3710   16.5332 N.3     1  UNL1       -0.3215
      3 H          62.8777   89.0962   17.1966 H       1  UNL1        0.1188
      4 H          63.8180   87.7393   16.9752 H       1  UNL1        0.1188
      5 C          64.2741   88.1493   14.2012 C.3     1  UNL1        0.1011
      6 C          63.1049   84.4911   13.0304 C.3     1  UNL1        0.1672
      7 C          62.3781   84.2323   11.7439 C.3     1  UNL1        0.0372
      8 C          62.1970   85.5452   11.0415 C.3     1  UNL1        0.0210
      9 C          61.6359   86.1966    9.8124 C.3     1  UNL1        0.0018
     10 C          61.9040   87.6695    9.9050 C.3     1  UNL1        0.0018
     11 C          62.6307   87.9285   11.1914 C.3     1  UNL1        0.0198
     12 C          62.8118   86.6155   11.8938 C.3     1  UNL1        0.0763
     13 N          63.3729   85.9641   13.1230 N.am    1  UNL1       -0.2701
     14 C          64.0782   86.6629   14.2474 C.2     1  UNL1        0.2276
     15 O          64.5878   85.8752   15.4179 O.2     1  UNL1       -0.2748
     16 N          63.8852   82.4257   15.0613 N.1     1  UNL1       -0.1942
     17 C          63.4951   83.4584   14.0458 C.1     1  UNL1        0.0925
     18 C          63.9254   90.4974   15.2573 C.3     1  UNL1        0.0447
     19 C          64.5734   91.1312   14.0621 C.ar    1  UNL1        0.0090
     20 C          63.8372   91.1972   12.7568 C.ar    1  UNL1        0.0300
     21 C          64.4851   91.8310   11.5616 C.ar    1  UNL1        0.1672
     22 F          63.7491   91.8970   10.2563 F       1  UNL1       -0.2018
     23 C          65.8692   92.3988   11.6717 C.ar    1  UNL1        0.1696
     24 F          66.5171   93.0326   10.4765 F       1  UNL1       -0.2017
     25 C          66.6053   92.3327   12.9770 C.ar    1  UNL1        0.0612
     26 C          65.9573   91.6989   14.1722 C.ar    1  UNL1        0.1386
     27 F          66.6934   91.6329   15.4775 F       1  UNL1       -0.2044
@<TRIPOS>BOND
     1    16    17    3
     2     6    17    1
     3     6     7    1
     4     8     7    1
     5     8     9    1
     6     9    10    1
     7    10    11    1
     8    12    11    1
     9    12    13    1
    10    13    14   am
    11    14    15    2
    12    14     5    1
    13     5     1    1
    14     1     2    1
    15     1    18    1
    16    18    19    1
    17    19    20   ar
    18    20    21   ar
    19    21    22    1
    20    21    23   ar
    21    23    24    1
    22    23    25   ar
    23    25    26   ar
    24    26    27    1
    25    13     6    1
    26    26    19   ar
    27    12     8    1
    28     2     3    1
    29     2     4    1
@<TRIPOS>MOLECULE
*****
 27 29 0 0 0
SMALL
GASTEIGER

@<TRIPOS>ATOM
      1 C          63.1469   84.7214    9.7323 C.3     1  UNL1        0.0644
      2 N          63.1159   85.1787    8.3041 N.3     1  UNL1       -0.3215
      3 H          63.8609   84.7164    7.7828 H       1  UNL1        0.1188
      4 H          63.2517   86.1890    8.2675 H       1  UNL1        0.1188
      5 C          62.1465   85.2572   10.7132 C.3     1  UNL1        0.1011
      6 C          61.5974   89.2295   10.9141 C.3     1  UNL1        0.1672
      7 C          60.7491   89.9929    9.9406 C.3     1  UNL1        0.0372
      8 C          60.1912   89.0172    8.9473 C.3     1  UNL1        0.0210
      9 C          59.3222   88.8861    7.7317 C.3     1  UNL1        0.0018
     10 C          59.2886   87.4385    7.3400 C.3     1  UNL1        0.0018
     11 C          60.1368   86.6750    8.3134 C.3     1  UNL1        0.0198
     12 C          60.6947   87.6507    9.3068 C.3     1  UNL1        0.0763
     13 N          61.5637   87.7819   10.5223 N.am    1  UNL1       -0.2701
     14 C          62.2744   86.6621   11.2231 C.2     1  UNL1        0.2276
     15 O          63.1129   86.9472   12.4338 O.2     1  UNL1       -0.2748
     16 N          63.0977   90.3932   13.2367 N.1     1  UNL1       -0.1942
     17 C          62.3475   89.8113   12.0754 C.1     1  UNL1        0.0925
     18 C          64.1782   83.7283   10.1796 C.3     1  UNL1        0.0447
     19 C          63.8376   82.7164   11.2332 C.ar    1  UNL1        0.0090
     20 C          63.3093   81.3696   10.8367 C.ar    1  UNL1        0.0300
     21 C          62.9687   80.3577   11.8902 C.ar    1  UNL1        0.1672
     22 F          62.4403   79.0110   11.4938 F       1  UNL1       -0.2018
     23 C          63.1564   80.6925   13.3403 C.ar    1  UNL1        0.1696
     24 F          62.8158   79.6806   14.3939 F       1  UNL1       -0.2017
     25 C          63.6847   82.0392   13.7368 C.ar    1  UNL1        0.0612
     26 C          64.0254   83.0511   12.6832 C.ar    1  UNL1        0.1386
     27 F          64.5537   84.3978   13.0797 F       1  UNL1       -0.2044
@<TRIPOS>BOND
     1    16    17    3
     2     6    17    1
     3     6     7    1
     4     8     7    1
     5     8     9    1
     6     9    10    1
     7    10    11    1
     8    12    11    1
     9    12    13    1
    10    13    14   am
    11    14    15    2
    12    14     5    1
    13     5     1    1
    14     1     2    1
    15     1    18    1
    16    18    19    1
    17    19    20   ar
    18    20    21   ar
    19    21    22    1
    20    21    23   ar
    21    23    24    1
    22    23    25   ar
    23    25    26   ar
    24    26    27    1
    25    13     6    1
    26    26    19   ar
    27    12     8    1
    28     2     3    1
    29     2     4    1
@<TRIPOS>MOLECULE
*****
 27 29 0 0 0
SMALL
GASTEIGER

@<TRIPOS>ATOM
      1 C          63.8413   85.6408   14.7073 C.3     1  UNL1        0.0644
      2 N          63.4925   86.1994   16.0549 N.3     1  UNL1       -0.3215
      3 H          63.7222   85.5157   16.7762 H       1  UNL1        0.1188
      4 H          62.4945   86.4072   16.0889 H       1  UNL1        0.1188
      5 C          63.5987   86.4560   13.4718 C.3     1  UNL1        0.1011
      6 C          63.4093   90.2944   12.3090 C.3     1  UNL1        0.1672
      7 C          62.6534   90.7501   11.0962 C.3     1  UNL1        0.0372
      8 C          62.0288   89.5444   10.4590 C.3     1  UNL1        0.0210
      9 C          61.1756   89.0810    9.3156 C.3     1  UNL1        0.0018
     10 C          61.0181   87.5935    9.4280 C.3     1  UNL1        0.0018
     11 C          61.7740   87.1376   10.6408 C.3     1  UNL1        0.0198
     12 C          62.3986   88.3434   11.2780 C.3     1  UNL1        0.0763
     13 N          63.2518   88.8068   12.4213 N.am    1  UNL1       -0.2701
     14 C          63.8437   87.9357   13.4895 C.2     1  UNL1        0.2276
     15 O          64.6805   88.5445   14.5754 O.2     1  UNL1       -0.2748
     16 N          64.9631   92.0494   14.1811 N.1     1  UNL1       -0.1942
     17 C          64.1862   91.1719   13.2450 C.1     1  UNL1        0.0925
     18 C          64.4328   84.2668   14.5951 C.3     1  UNL1        0.0447
     19 C          64.0030   83.3537   13.4853 C.ar    1  UNL1        0.0090
     20 C          64.6454   83.4615   12.1341 C.ar    1  UNL1        0.0300
     21 C          64.2157   82.5484   11.0244 C.ar    1  UNL1        0.1672
     22 F          64.8579   82.6562    9.6732 F       1  UNL1       -0.2018
     23 C          63.1436   81.5273   11.2659 C.ar    1  UNL1        0.1696
     24 F          62.7139   80.6142   10.1562 F       1  UNL1       -0.2017
     25 C          62.5013   81.4195   12.6171 C.ar    1  UNL1        0.0612
     26 C          62.9310   82.3327   13.7268 C.ar    1  UNL1        0.1386
     27 F          62.2888   82.2249   15.0780 F       1  UNL1       -0.2044
@<TRIPOS>BOND
     1    16    17    3
     2     6    17    1
     3     6     7    1
     4     8     7    1
     5     8     9    1
     6     9    10    1
     7    10    11    1
     8    12    11    1
     9    12    13    1
    10    13    14   am
    11    14    15    2
    12    14     5    1
    13     5     1    1
    14     1     2    1
    15     1    18    1
    16    18    19    1
    17    19    20   ar
    18    20    21   ar
    19    21    22    1
    20    21    23   ar
    21    23    24    1
    22    23    25   ar
    23    25    26   ar
    24    26    27    1
    25    13     6    1
    26    26    19   ar
    27    12     8    1
    28     2     3    1
    29     2     4    1
@<TRIPOS>MOLECULE
*****
 27 29 0 0 0
SMALL
GASTEIGER

@<TRIPOS>ATOM
      1 C          63.6599   86.3325   15.4623 C.3     1  UNL1        0.0644
      2 N          63.2796   87.3800   16.4662 N.3     1  UNL1       -0.3215
      3 H          63.1886   86.9512   17.3872 H       1  UNL1        0.1188
      4 H          62.3902   87.8012   16.1978 H       1  UNL1        0.1188
      5 C          63.8567   86.7087   14.0236 C.3     1  UNL1        0.1011
      6 C          63.3546   90.0603   11.8706 C.3     1  UNL1        0.1672
      7 C          62.5671   90.1082   10.5948 C.3     1  UNL1        0.0372
      8 C          62.0459   88.7288   10.3196 C.3     1  UNL1        0.0210
      9 C          61.2372   87.9060    9.3610 C.3     1  UNL1        0.0018
     10 C          61.2027   86.4970    9.8743 C.3     1  UNL1        0.0018
     11 C          61.9901   86.4490   11.1501 C.3     1  UNL1        0.0198
     12 C          62.5113   87.8284   11.4253 C.3     1  UNL1        0.0763
     13 N          63.3201   88.6512   12.3839 N.am    1  UNL1       -0.2701
     14 C          63.9787   88.1525   13.6359 C.2     1  UNL1        0.2276
     15 O          64.7594   89.0978   14.5002 O.2     1  UNL1       -0.2748
     16 N          64.7530   92.3757   13.1677 N.1     1  UNL1       -0.1942
     17 C          64.0538   91.2180   12.5191 C.1     1  UNL1        0.0925
     18 C          63.8436   84.9086   15.8970 C.3     1  UNL1        0.0447
     19 C          63.5478   83.7892   14.9433 C.ar    1  UNL1        0.0090
     20 C          62.2712   83.0121   15.0717 C.ar    1  UNL1        0.0300
     21 C          61.9754   81.8927   14.1181 C.ar    1  UNL1        0.1672
     22 F          60.6989   81.1156   14.2465 F       1  UNL1       -0.2018
     23 C          62.9563   81.5504   13.0360 C.ar    1  UNL1        0.1696
     24 F          62.6605   80.4310   12.0823 F       1  UNL1       -0.2017
     25 C          64.2328   82.3275   12.9076 C.ar    1  UNL1        0.0612
     26 C          64.5286   83.4469   13.8613 C.ar    1  UNL1        0.1386
     27 F          65.8051   84.2240   13.7329 F       1  UNL1       -0.2044
@<TRIPOS>BOND
     1    16    17    3
     2     6    17    1
     3     6     7    1
     4     8     7    1
     5     8     9    1
     6     9    10    1
     7    10    11    1
     8    12    11    1
     9    12    13    1
    10    13    14   am
    11    14    15    2
    12    14     5    1
    13     5     1    1
    14     1     2    1
    15     1    18    1
    16    18    19    1
    17    19    20   ar
    18    20    21   ar
    19    21    22    1
    20    21    23   ar
    21    23    24    1
    22    23    25   ar
    23    25    26   ar
    24    26    27    1
    25    13     6    1
    26    26    19   ar
    27    12     8    1
    28     2     3    1
    29     2     4    1
@<TRIPOS>MOLECULE
*****
 27 29 0 0 0
SMALL
GASTEIGER

@<TRIPOS>ATOM
      1 C          63.1225   84.6506    9.6823 C.3     1  UNL1        0.0644
      2 N          63.1796   85.1596    8.2725 N.3     1  UNL1       -0.3215
      3 H          63.9253   84.6802    7.7679 H       1  UNL1        0.1188
      4 H          63.3646   86.1626    8.2804 H       1  UNL1        0.1188
      5 C          62.1041   85.1995   10.6372 C.3     1  UNL1        0.1011
      6 C          61.6820   89.1773   10.9827 C.3     1  UNL1        0.1672
      7 C          60.8698   90.0041   10.0304 C.3     1  UNL1        0.0372
      8 C          60.2917   89.0852    8.9954 C.3     1  UNL1        0.0210
      9 C          59.4325   89.0283    7.7672 C.3     1  UNL1        0.0018
     10 C          59.3563   87.5984    7.3206 C.3     1  UNL1        0.0018
     11 C          60.1684   86.7715    8.2729 C.3     1  UNL1        0.0198
     12 C          60.7465   87.6904    9.3079 C.3     1  UNL1        0.0763
     13 N          61.6057   87.7473   10.5362 N.am    1  UNL1       -0.2701
     14 C          62.2718   86.5793   11.2011 C.2     1  UNL1        0.2276
     15 O          63.1055   86.7911   12.4300 O.2     1  UNL1       -0.2748
     16 N          63.1932   90.2033   13.3624 N.1     1  UNL1       -0.1942
     17 C          62.4376   89.6903   12.1725 C.1     1  UNL1        0.0925
     18 C          64.0838   83.5928   10.1374 C.3     1  UNL1        0.0447
     19 C          63.7544   82.7422   11.3282 C.ar    1  UNL1        0.0090
     20 C          64.0198   83.2550   12.7127 C.ar    1  UNL1        0.0300
     21 C          63.6904   82.4044   13.9034 C.ar    1  UNL1        0.1672
     22 F          63.9557   82.9172   15.2879 F       1  UNL1       -0.2018
     23 C          63.0956   81.0410   13.7098 C.ar    1  UNL1        0.1696
     24 F          62.7662   80.1904   14.9005 F       1  UNL1       -0.2017
     25 C          62.8303   80.5283   12.3253 C.ar    1  UNL1        0.0612
     26 C          63.1597   81.3789   11.1346 C.ar    1  UNL1        0.1386
     27 F          62.8943   80.8661    9.7502 F       1  UNL1       -0.2044
@<TRIPOS>BOND
     1    16    17    3
     2     6    17    1
     3     6     7    1
     4     8     7    1
     5     8     9    1
     6     9    10    1
     7    10    11    1
     8    12    11    1
     9    12    13    1
    10    13    14   am
    11    14    15    2
    12    14     5    1
    13     5     1    1
    14     1     2    1
    15     1    18    1
    16    18    19    1
    17    19    20   ar
    18    20    21   ar
    19    21    22    1
    20    21    23   ar
    21    23    24    1
    22    23    25   ar
    23    25    26   ar
    24    26    27    1
    25    13     6    1
    26    26    19   ar
    27    12     8    1
    28     2     3    1
    29     2     4    1
@<TRIPOS>MOLECULE
*****
 27 29 0 0 0
SMALL
GASTEIGER

@<TRIPOS>ATOM
      1 C          63.0748   84.6411    9.4844 C.3     1  UNL1        0.0644
      2 N          63.2278   84.7644    7.9974 N.3     1  UNL1       -0.3215
      3 H          63.9631   84.1339    7.6778 H       1  UNL1        0.1188
      4 H          63.4763   85.7247    7.7596 H       1  UNL1        0.1188
      5 C          62.0519   85.4690   10.2043 C.3     1  UNL1        0.1011
      6 C          60.8591   89.2086    9.3599 C.3     1  UNL1        0.1672
      7 C          61.2756   90.4058   10.1620 C.3     1  UNL1        0.0372
      8 C          62.1709   89.9335   11.2690 C.3     1  UNL1        0.0210
      9 C          62.9816   90.3816   12.4488 C.3     1  UNL1        0.0018
     10 C          63.6195   89.1694   13.0601 C.3     1  UNL1        0.0018
     11 C          63.2031   87.9722   12.2580 C.3     1  UNL1        0.0198
     12 C          62.3078   88.4444   11.1510 C.3     1  UNL1        0.0763
     13 N          61.4971   87.9964    9.9712 N.am    1  UNL1       -0.2701
     14 C          61.3501   86.5841    9.4875 C.2     1  UNL1        0.2276
     15 O          60.5012   86.2870    8.2870 O.2     1  UNL1       -0.2748
     16 N          59.0654   89.2341    6.9554 N.1     1  UNL1       -0.1942
     17 C          59.9623   89.2214    8.1577 C.1     1  UNL1        0.0925
     18 C          63.9448   83.6899   10.2516 C.3     1  UNL1        0.0447
     19 C          63.3767   82.9186   11.4058 C.ar    1  UNL1        0.0090
     20 C          63.1428   83.6007   12.7212 C.ar    1  UNL1        0.0300
     21 C          62.5747   82.8294   13.8755 C.ar    1  UNL1        0.1672
     22 F          62.3409   83.5115   15.1908 F       1  UNL1       -0.2018
     23 C          62.2405   81.3760   13.7144 C.ar    1  UNL1        0.1696
     24 F          61.6724   80.6047   14.8687 F       1  UNL1       -0.2017
     25 C          62.4744   80.6939   12.3991 C.ar    1  UNL1        0.0612
     26 C          63.0425   81.4653   11.2448 C.ar    1  UNL1        0.1386
     27 F          63.2763   80.7832    9.9295 F       1  UNL1       -0.2044
@<TRIPOS>BOND
     1    16    17    3
     2     6    17    1
     3     6     7    1
     4     8     7    1
     5     8     9    1
     6     9    10    1
     7    10    11    1
     8    12    11    1
     9    12    13    1
    10    13    14   am
    11    14    15    2
    12    14     5    1
    13     5     1    1
    14     1     2    1
    15     1    18    1
    16    18    19    1
    17    19    20   ar
    18    20    21   ar
    19    21    22    1
    20    21    23   ar
    21    23    24    1
    22    23    25   ar
    23    25    26   ar
    24    26    27    1
    25    13     6    1
    26    26    19   ar
    27    12     8    1
    28     2     3    1
    29     2     4    1
@<TRIPOS>MOLECULE
*****
 27 29 0 0 0
SMALL
GASTEIGER

@<TRIPOS>ATOM
      1 C          62.8576   84.8442   10.6151 C.3     1  UNL1        0.0644
      2 N          63.2632   84.7752    9.1726 N.3     1  UNL1       -0.3215
      3 H          64.0913   84.1870    9.0800 H       1  UNL1        0.1188
      4 H          63.4731   85.7138    8.8332 H       1  UNL1        0.1188
      5 C          61.6603   85.6522   11.0197 C.3     1  UNL1        0.1011
      6 C          61.0250   89.2940    9.4532 C.3     1  UNL1        0.1672
      7 C          61.6399   90.5458   10.0056 C.3     1  UNL1        0.0372
      8 C          62.4834   90.1660   11.1864 C.3     1  UNL1        0.0210
      9 C          63.3846   90.7049   12.2575 C.3     1  UNL1        0.0018
     10 C          63.8481   89.5514   13.0970 C.3     1  UNL1        0.0018
     11 C          63.2333   88.2996   12.5447 C.3     1  UNL1        0.0198
     12 C          62.3898   88.6794   11.3639 C.3     1  UNL1        0.0763
     13 N          61.4885   88.1405   10.2927 N.am    1  UNL1       -0.2701
     14 C          61.1161   86.7009   10.0957 C.2     1  UNL1        0.2276
     15 O          60.1994   86.3101    8.9745 O.2     1  UNL1       -0.2748
     16 N          59.1906   89.1268    7.0855 N.1     1  UNL1       -0.1942
     17 C          60.1078   89.2104    8.2694 C.1     1  UNL1        0.0925
     18 C          63.6494   84.1053   11.6530 C.3     1  UNL1        0.0447
     19 C          63.1022   82.8467   12.2583 C.ar    1  UNL1        0.0090
     20 C          63.1745   81.5557   11.4977 C.ar    1  UNL1        0.0300
     21 C          62.6273   80.2970   12.1030 C.ar    1  UNL1        0.1672
     22 F          62.6996   79.0062   11.3426 F       1  UNL1       -0.2018
     23 C          62.0079   80.3293   13.4688 C.ar    1  UNL1        0.1696
     24 F          61.4607   79.0707   14.0741 F       1  UNL1       -0.2017
     25 C          61.9356   81.6202   14.2292 C.ar    1  UNL1        0.0612
     26 C          62.4828   82.8789   13.6240 C.ar    1  UNL1        0.1386
     27 F          62.4106   84.1698   14.3844 F       1  UNL1       -0.2044
@<TRIPOS>BOND
     1    16    17    3
     2     6    17    1
     3     6     7    1
     4     8     7    1
     5     8     9    1
     6     9    10    1
     7    10    11    1
     8    12    11    1
     9    12    13    1
    10    13    14   am
    11    14    15    2
    12    14     5    1
    13     5     1    1
    14     1     2    1
    15     1    18    1
    16    18    19    1
    17    19    20   ar
    18    20    21   ar
    19    21    22    1
    20    21    23   ar
    21    23    24    1
    22    23    25   ar
    23    25    26   ar
    24    26    27    1
    25    13     6    1
    26    26    19   ar
    27    12     8    1
    28     2     3    1
    29     2     4    1
@<TRIPOS>MOLECULE
*****
 27 29 0 0 0
SMALL
GASTEIGER

@<TRIPOS>ATOM
      1 C          63.5624   88.5189   15.6057 C.3     1  UNL1        0.0644
      2 N          63.0956   87.8974   16.8886 N.3     1  UNL1       -0.3215
      3 H          63.4405   86.9393   16.9474 H       1  UNL1        0.1188
      4 H          62.0759   87.8939   16.9134 H       1  UNL1        0.1188
      5 C          63.1870   89.9336   15.2775 C.3     1  UNL1        0.1011
      6 C          65.2307   92.1522   12.6276 C.3     1  UNL1        0.1672
      7 C          64.8990   92.2000   11.1654 C.3     1  UNL1        0.0372
      8 C          63.7213   91.3020   10.9276 C.3     1  UNL1        0.0210
      9 C          62.7885   90.7765    9.8770 C.3     1  UNL1        0.0018
     10 C          61.8158   89.8489   10.5428 C.3     1  UNL1        0.0018
     11 C          62.1474   89.8010   12.0049 C.3     1  UNL1        0.0198
     12 C          63.3251   90.6991   12.2428 C.3     1  UNL1        0.0763
     13 N          64.2579   91.2245   13.2934 N.am    1  UNL1       -0.2701
     14 C          64.2239   90.8824   14.7535 C.2     1  UNL1        0.2276
     15 O          65.2269   91.4891   15.6895 O.2     1  UNL1       -0.2748
     16 N          67.4497   93.6489   13.9823 N.1     1  UNL1       -0.1942
     17 C          66.3401   92.9005   13.3049 C.1     1  UNL1        0.0925
     18 C          64.4046   87.7257   14.6509 C.3     1  UNL1        0.0447
     19 C          63.8753   86.4501   14.0655 C.ar    1  UNL1        0.0090
     20 C          63.2511   86.4531   12.7015 C.ar    1  UNL1        0.0300
     21 C          62.7218   85.1774   12.1162 C.ar    1  UNL1        0.1672
     22 F          62.0976   85.1804   10.7523 F       1  UNL1       -0.2018
     23 C          62.8168   83.8988   12.8948 C.ar    1  UNL1        0.1696
     24 F          62.2875   82.6232   12.3095 F       1  UNL1       -0.2017
     25 C          63.4410   83.8959   14.2587 C.ar    1  UNL1        0.0612
     26 C          63.9703   85.1715   14.8441 C.ar    1  UNL1        0.1386
     27 F          64.5945   85.1686   16.2080 F       1  UNL1       -0.2044
@<TRIPOS>BOND
     1    16    17    3
     2     6    17    1
     3     6     7    1
     4     8     7    1
     5     8     9    1
     6     9    10    1
     7    10    11    1
     8    12    11    1
     9    12    13    1
    10    13    14   am
    11    14    15    2
    12    14     5    1
    13     5     1    1
    14     1     2    1
    15     1    18    1
    16    18    19    1
    17    19    20   ar
    18    20    21   ar
    19    21    22    1
    20    21    23   ar
    21    23    24    1
    22    23    25   ar
    23    25    26   ar
    24    26    27    1
    25    13     6    1
    26    26    19   ar
    27    12     8    1
    28     2     3    1
    29     2     4    1
