@<TRIPOS>MOLECULE
*****
 36 40 0 0 0
SMALL
GASTEIGER

@<TRIPOS>ATOM
      1 C          63.4812   89.8472   13.0470 C.ar    1  UNL1        0.0118
      2 C          64.0336   90.9320   12.1705 C.ar    1  UNL1        0.0007
      3 C          65.2249   91.7252   12.6196 C.ar    1  UNL1        0.0231
      4 C          65.8637   91.4337   13.9451 C.ar    1  UNL1        0.0051
      5 C          65.3112   90.3490   14.8215 C.ar    1  UNL1        0.0366
      6 C          64.1200   89.5557   14.3724 C.ar    1  UNL1        0.1345
      7 C          65.7773   92.8100   11.7432 C.2     1  UNL1        0.1040
      8 N          65.9388   94.2525   12.1214 N.2     1  UNL1       -0.2361
      9 C          66.5266   94.9768   10.9466 C.3     1  UNL1        0.2301
     10 O          66.9041   96.4136   10.7398 O.3     1  UNL1       -0.3338
     11 C          67.4834   96.8556    9.4287 C.3     1  UNL1        0.1444
     12 C          67.6851   95.8607    8.3244 C.3     1  UNL1        0.0332
     13 C          67.3075   94.4238    8.5312 C.3     1  UNL1        0.0183
     14 C          66.7283   93.9818    9.8423 C.3     1  UNL1        0.1042
     15 S          66.2652   92.6427   10.3346 S.3     1  UNL1       -0.0916
     16 C          62.2899   89.0540   12.5978 C.3     1  UNL1        0.0294
     17 C          60.5602   88.9631   10.6613 C.3     1  UNL1        0.0004
     18 C          61.9829   88.9248   11.1353 C.3     1  UNL1        0.0048
     19 O          63.5676   88.4710   15.2488 O.3     1  UNL1       -0.4756
     20 C          63.0957   88.7944   16.6354 C.3     1  UNL1        0.2092
     21 C          62.8942   87.6942   17.6349 C.3     1  UNL1        0.0946
     22 C          62.7097   86.2808   17.1674 C.3     1  UNL1        0.2093
     23 O          63.8804   85.5075   16.6370 O.3     1  UNL1       -0.4753
     24 C          63.8127   84.8851   15.2740 C.ar    1  UNL1        0.1382
     25 C          64.3759   83.5135   15.0469 C.ar    1  UNL1        0.0366
     26 C          64.3082   82.8911   13.6838 C.ar    1  UNL1       -0.0015
     27 C          63.6773   83.6404   12.5477 C.ar    1  UNL1       -0.0259
     28 C          63.1142   85.0119   12.7747 C.ar    1  UNL1       -0.0231
     29 C          63.1819   85.6344   14.1379 C.ar    1  UNL1        0.0323
     30 C          62.5565   85.5055   11.4727 C.3     1  UNL1        0.0265
     31 C          62.7751   84.4389   10.4409 C.3     1  UNL1        0.0094
     32 C          63.4678   83.2862   11.1053 C.3     1  UNL1        0.0279
     33 C          63.8787   82.0043   10.4435 C.3     1  UNL1        0.0460
     34 C          63.1339   80.7360   10.7377 C.2     1  UNL1        0.0507
     35 O          62.6171   80.4734   12.1212 O.co2   1  UNL1       -0.5492
     36 O          62.9058   79.7303    9.6485 O.co2   1  UNL1       -0.5492
@<TRIPOS>UNITY_ATOM_ATTR
35 1
charge -1
@<TRIPOS>BOND
     1    17    18    1
     2    18    16    1
     3    16     1    1
     4     1     2   ar
     5     2     3   ar
     6     3     7    1
     7     7     8    2
     8     8     9    1
     9     9    10    1
    10    10    11    1
    11    11    12    1
    12    12    13    1
    13    13    14    1
    14    14    15    1
    15     3     4   ar
    16     4     5   ar
    17     5     6   ar
    18     6    19    1
    19    19    20    1
    20    20    21    1
    21    21    22    1
    22    22    23    1
    23    23    24    1
    24    24    25   ar
    25    25    26   ar
    26    26    27   ar
    27    27    28   ar
    28    28    29   ar
    29    28    30    1
    30    30    31    1
    31    31    32    1
    32    32    33    1
    33    33    34    1
    34    34    35   ar
    35    34    36   ar
    36     6     1   ar
    37    29    24   ar
    38    15     7    1
    39    32    27    1
    40    14     9    1
@<TRIPOS>MOLECULE
*****
 36 40 0 0 0
SMALL
GASTEIGER

@<TRIPOS>ATOM
      1 C          63.3553   89.9054   12.9151 C.ar    1  UNL1        0.0118
      2 C          63.9349   90.9750   12.0375 C.ar    1  UNL1        0.0007
      3 C          65.1069   91.7816   12.5126 C.ar    1  UNL1        0.0231
      4 C          65.6993   91.5186   13.8653 C.ar    1  UNL1        0.0051
      5 C          65.1198   90.4491   14.7429 C.ar    1  UNL1        0.0366
      6 C          63.9478   89.6425   14.2678 C.ar    1  UNL1        0.1345
      7 C          65.6864   92.8512   11.6351 C.2     1  UNL1        0.1040
      8 N          66.2000   92.6634   10.2383 N.2     1  UNL1       -0.2361
      9 C          66.6851   93.9924    9.7401 C.3     1  UNL1        0.2301
     10 O          67.2939   94.4141    8.4357 O.3     1  UNL1       -0.3338
     11 C          67.6889   95.8449    8.2201 C.3     1  UNL1        0.1444
     12 C          67.4751   96.8542    9.3090 C.3     1  UNL1        0.0332
     13 C          66.8664   96.4326   10.6135 C.3     1  UNL1        0.0183
     14 C          66.4714   95.0017   10.8290 C.3     1  UNL1        0.1042
     15 S          65.8541   94.2964   12.0001 S.3     1  UNL1       -0.0916
     16 C          62.1833   89.0988   12.4400 C.3     1  UNL1        0.0294
     17 C          59.7578   89.8406   11.8768 C.3     1  UNL1        0.0004
     18 C          61.1981   89.7000   11.4819 C.3     1  UNL1        0.0048
     19 O          63.3682   88.5729   15.1454 O.3     1  UNL1       -0.4756
     20 C          63.1822   88.8254   16.6122 C.3     1  UNL1        0.2092
     21 C          63.0518   87.6712   17.5613 C.3     1  UNL1        0.0946
     22 C          62.1918   86.4964   17.1998 C.3     1  UNL1        0.2093
     23 O          62.8220   85.1660   16.9121 O.3     1  UNL1       -0.4753
     24 C          62.9704   84.6971   15.4951 C.ar    1  UNL1        0.1382
     25 C          63.5034   85.6301   14.4483 C.ar    1  UNL1        0.0366
     26 C          63.6518   85.1612   13.0312 C.ar    1  UNL1       -0.0015
     27 C          63.2672   83.7594   12.6609 C.ar    1  UNL1       -0.0259
     28 C          62.7343   82.8265   13.7076 C.ar    1  UNL1       -0.0231
     29 C          62.5859   83.2954   15.1247 C.ar    1  UNL1        0.0323
     30 C          62.4399   81.5111   13.0496 C.3     1  UNL1        0.0265
     31 C          62.7910   81.6310   11.5962 C.3     1  UNL1        0.0094
     32 C          63.3023   83.0206   11.3560 C.3     1  UNL1        0.0279
     33 C          63.7670   83.5741   10.0416 C.3     1  UNL1        0.0460
     34 C          63.0348   84.7207    9.4097 C.2     1  UNL1        0.0507
     35 O          63.2408   85.0328    7.9570 O.co2   1  UNL1       -0.5492
     36 O          62.0967   85.5551   10.2303 O.co2   1  UNL1       -0.5492
@<TRIPOS>UNITY_ATOM_ATTR
35 1
charge -1
@<TRIPOS>BOND
     1    17    18    1
     2    18    16    1
     3    16     1    1
     4     1     2   ar
     5     2     3   ar
     6     3     7    1
     7     7     8    2
     8     8     9    1
     9     9    10    1
    10    10    11    1
    11    11    12    1
    12    12    13    1
    13    13    14    1
    14    14    15    1
    15     3     4   ar
    16     4     5   ar
    17     5     6   ar
    18     6    19    1
    19    19    20    1
    20    20    21    1
    21    21    22    1
    22    22    23    1
    23    23    24    1
    24    24    25   ar
    25    25    26   ar
    26    26    27   ar
    27    27    28   ar
    28    28    29   ar
    29    28    30    1
    30    30    31    1
    31    31    32    1
    32    32    33    1
    33    33    34    1
    34    34    35   ar
    35    34    36   ar
    36     6     1   ar
    37    29    24   ar
    38    15     7    1
    39    32    27    1
    40    14     9    1
@<TRIPOS>MOLECULE
*****
 36 40 0 0 0
SMALL
GASTEIGER

@<TRIPOS>ATOM
      1 C          61.2827   89.6944   11.7627 C.ar    1  UNL1        0.0118
      2 C          62.4442   90.1287   12.6067 C.ar    1  UNL1        0.0007
      3 C          63.5374   90.9620   12.0063 C.ar    1  UNL1        0.0231
      4 C          63.4692   91.3609   10.5620 C.ar    1  UNL1        0.0051
      5 C          62.3077   90.9266    9.7180 C.ar    1  UNL1        0.0366
      6 C          61.2144   90.0934   10.3184 C.ar    1  UNL1        0.1345
      7 C          64.6989   91.3963   12.8502 C.2     1  UNL1        0.1040
      8 N          66.0879   91.6796   12.3599 N.2     1  UNL1       -0.2361
      9 C          66.9229   92.0820   13.5393 C.3     1  UNL1        0.2301
     10 O          68.3652   92.4754   13.6606 O.3     1  UNL1       -0.3338
     11 C          68.9346   92.8342   15.0011 C.3     1  UNL1        0.1444
     12 C          68.0616   92.7996   16.2204 C.3     1  UNL1        0.0332
     13 C          66.6192   92.4061   16.0992 C.3     1  UNL1        0.0183
     14 C          66.0499   92.0473   14.7586 C.3     1  UNL1        0.1042
     15 S          64.6754   91.6236   14.3327 S.3     1  UNL1       -0.0916
     16 C          60.1894   88.8611   12.3631 C.3     1  UNL1        0.0294
     17 C          57.7442   88.6315   13.2106 C.3     1  UNL1        0.0004
     18 C          58.8553   89.4776   12.6631 C.3     1  UNL1        0.0048
     19 O          60.0529   89.6591    9.4744 O.3     1  UNL1       -0.4756
     20 C          60.2924   88.9073    8.1987 C.3     1  UNL1        0.2092
     21 C          59.3972   87.7640    7.8225 C.3     1  UNL1        0.0946
     22 C          59.9538   86.3740    7.7321 C.3     1  UNL1        0.2093
     23 O          61.4342   86.1514    7.8255 O.3     1  UNL1       -0.4753
     24 C          62.0287   85.5764    9.0768 C.ar    1  UNL1        0.1382
     25 C          61.7019   86.1825   10.4096 C.ar    1  UNL1        0.0366
     26 C          62.2964   85.6075   11.6609 C.ar    1  UNL1       -0.0015
     27 C          63.2177   84.4266   11.5797 C.ar    1  UNL1       -0.0259
     28 C          63.5445   83.8206   10.2471 C.ar    1  UNL1       -0.0231
     29 C          62.9500   84.3955    8.9956 C.ar    1  UNL1        0.0323
     30 C          64.4778   82.6692   10.4777 C.3     1  UNL1        0.0265
     31 C          64.7278   82.5636   11.9530 C.3     1  UNL1        0.0094
     32 C          63.9491   83.6498   12.6340 C.3     1  UNL1        0.0279
     33 C          63.9087   83.9129   14.1102 C.3     1  UNL1        0.0460
     34 C          62.7010   83.5213   14.9090 C.2     1  UNL1        0.0507
     35 O          62.2055   84.4155   16.0067 O.co2   1  UNL1       -0.5492
     36 O          61.9887   82.2355   14.6103 O.co2   1  UNL1       -0.5492
@<TRIPOS>UNITY_ATOM_ATTR
35 1
charge -1
@<TRIPOS>BOND
     1    17    18    1
     2    18    16    1
     3    16     1    1
     4     1     2   ar
     5     2     3   ar
     6     3     7    1
     7     7     8    2
     8     8     9    1
     9     9    10    1
    10    10    11    1
    11    11    12    1
    12    12    13    1
    13    13    14    1
    14    14    15    1
    15     3     4   ar
    16     4     5   ar
    17     5     6   ar
    18     6    19    1
    19    19    20    1
    20    20    21    1
    21    21    22    1
    22    22    23    1
    23    23    24    1
    24    24    25   ar
    25    25    26   ar
    26    26    27   ar
    27    27    28   ar
    28    28    29   ar
    29    28    30    1
    30    30    31    1
    31    31    32    1
    32    32    33    1
    33    33    34    1
    34    34    35   ar
    35    34    36   ar
    36     6     1   ar
    37    29    24   ar
    38    15     7    1
    39    32    27    1
    40    14     9    1
@<TRIPOS>MOLECULE
*****
 36 40 0 0 0
SMALL
GASTEIGER

@<TRIPOS>ATOM
      1 C          61.7096   87.5510   10.3060 C.ar    1  UNL1        0.0118
      2 C          62.7135   88.3402   11.0931 C.ar    1  UNL1        0.0007
      3 C          62.4094   89.7535   11.4932 C.ar    1  UNL1        0.0231
      4 C          61.1015   90.3776   11.1063 C.ar    1  UNL1        0.0051
      5 C          60.0977   89.5884   10.3192 C.ar    1  UNL1        0.0366
      6 C          60.4017   88.1752    9.9191 C.ar    1  UNL1        0.1345
      7 C          63.4133   90.5426   12.2803 C.2     1  UNL1        0.1040
      8 N          64.3152   91.6117   11.7385 N.2     1  UNL1       -0.2361
      9 C          65.1508   92.1311   12.8707 C.3     1  UNL1        0.2301
     10 O          66.2129   93.1885   12.9315 O.3     1  UNL1       -0.3338
     11 C          66.8895   93.4979   14.2340 C.3     1  UNL1        0.1444
     12 C          66.5040   92.7498   15.4756 C.3     1  UNL1        0.0332
     13 C          65.4420   91.6923   15.4149 C.3     1  UNL1        0.0183
     14 C          64.7654   91.3830   14.1124 C.3     1  UNL1        0.1042
     15 S          63.6915   90.4013   13.7475 S.3     1  UNL1       -0.0916
     16 C          62.0137   86.1377    9.9059 C.3     1  UNL1        0.0294
     17 C          61.8802   85.2062    7.4842 C.3     1  UNL1        0.0004
     18 C          62.6656   85.8560    8.5847 C.3     1  UNL1        0.0048
     19 O          59.3979   87.3860    9.1320 O.3     1  UNL1       -0.4756
     20 C          59.0549   87.7949    7.7302 C.3     1  UNL1        0.2092
     21 C          59.4709   89.1423    7.2188 C.3     1  UNL1        0.0946
     22 C          58.9367   89.6457    5.9106 C.3     1  UNL1        0.2093
     23 O          58.9375   91.1166    5.6164 O.3     1  UNL1       -0.4753
     24 C          59.8270   91.6658    4.5407 C.ar    1  UNL1        0.1382
     25 C          59.2954   92.6824    3.5743 C.ar    1  UNL1        0.0366
     26 C          60.1849   93.2316    2.4986 C.ar    1  UNL1       -0.0015
     27 C          61.6060   92.7642    2.3892 C.ar    1  UNL1       -0.0259
     28 C          62.1376   91.7476    3.3556 C.ar    1  UNL1       -0.0231
     29 C          61.2481   91.1984    4.4313 C.ar    1  UNL1        0.0323
     30 C          63.5706   91.4783    3.0035 C.3     1  UNL1        0.0265
     31 C          63.9246   92.3285    1.8195 C.3     1  UNL1        0.0094
     32 C          62.7104   93.1232    1.4399 C.3     1  UNL1        0.0279
     33 C          62.6170   94.1047    0.3094 C.3     1  UNL1        0.0460
     34 C          63.7612   94.2561   -0.6487 C.2     1  UNL1        0.0507
     35 O          63.6830   93.6391   -2.0138 O.co2   1  UNL1       -0.5492
     36 O          64.9834   95.0245   -0.2420 O.co2   1  UNL1       -0.5492
@<TRIPOS>UNITY_ATOM_ATTR
35 1
charge -1
@<TRIPOS>BOND
     1    17    18    1
     2    18    16    1
     3    16     1    1
     4     1     2   ar
     5     2     3   ar
     6     3     7    1
     7     7     8    2
     8     8     9    1
     9     9    10    1
    10    10    11    1
    11    11    12    1
    12    12    13    1
    13    13    14    1
    14    14    15    1
    15     3     4   ar
    16     4     5   ar
    17     5     6   ar
    18     6    19    1
    19    19    20    1
    20    20    21    1
    21    21    22    1
    22    22    23    1
    23    23    24    1
    24    24    25   ar
    25    25    26   ar
    26    26    27   ar
    27    27    28   ar
    28    28    29   ar
    29    28    30    1
    30    30    31    1
    31    31    32    1
    32    32    33    1
    33    33    34    1
    34    34    35   ar
    35    34    36   ar
    36     6     1   ar
    37    29    24   ar
    38    15     7    1
    39    32    27    1
    40    14     9    1
@<TRIPOS>MOLECULE
*****
 36 40 0 0 0
SMALL
GASTEIGER

@<TRIPOS>ATOM
      1 C          65.0914   92.3306   10.8701 C.ar    1  UNL1        0.0118
      2 C          64.1967   91.3869   10.1225 C.ar    1  UNL1        0.0007
      3 C          63.1414   90.6139   10.8566 C.ar    1  UNL1        0.0231
      4 C          62.9810   90.7845   12.3381 C.ar    1  UNL1        0.0051
      5 C          63.8758   91.7283   13.0857 C.ar    1  UNL1        0.0366
      6 C          64.9310   92.5013   12.3516 C.ar    1  UNL1        0.1345
      7 C          62.2467   89.6702   10.1091 C.2     1  UNL1        0.1040
      8 N          61.0448   90.0517    9.2968 N.2     1  UNL1       -0.2361
      9 C          60.4520   88.7966    8.7283 C.3     1  UNL1        0.2301
     10 O          59.2593   88.5580    7.8504 O.3     1  UNL1       -0.3338
     11 C          58.9022   87.1621    7.4336 C.3     1  UNL1        0.1444
     12 C          59.7377   86.0047    7.8945 C.3     1  UNL1        0.0332
     13 C          60.9304   86.2433    8.7723 C.3     1  UNL1        0.0183
     14 C          61.2875   87.6392    9.1892 C.3     1  UNL1        0.1042
     15 S          62.3967   88.1792   10.0426 S.3     1  UNL1       -0.0916
     16 C          66.1467   93.1037   10.1359 C.3     1  UNL1        0.0294
     17 C          68.3814   92.3539    9.0431 C.3     1  UNL1        0.0004
     18 C          67.5891   92.7129   10.2652 C.3     1  UNL1        0.0048
     19 O          65.8258   93.4450   13.0991 O.3     1  UNL1       -0.4756
     20 C          66.7034   92.9315   14.2019 C.3     1  UNL1        0.2092
     21 C          66.2008   91.8596   15.1230 C.3     1  UNL1        0.0946
     22 C          65.1642   92.1850   16.1573 C.3     1  UNL1        0.2093
     23 O          63.8601   91.4439   16.1711 O.3     1  UNL1       -0.4753
     24 C          63.8432   89.9525   16.0123 C.ar    1  UNL1        0.1382
     25 C          64.5542   89.3132   14.8565 C.ar    1  UNL1        0.0366
     26 C          64.5374   87.8218   14.6977 C.ar    1  UNL1       -0.0015
     27 C          63.8095   86.9695   15.6947 C.ar    1  UNL1       -0.0259
     28 C          63.0986   87.6088   16.8505 C.ar    1  UNL1       -0.0231
     29 C          63.1154   89.1003   17.0093 C.ar    1  UNL1        0.0323
     30 C          62.4700   86.5195   17.6679 C.3     1  UNL1        0.0265
     31 C          62.7924   85.2069   17.0173 C.3     1  UNL1        0.0094
     32 C          63.6203   85.4851   15.7978 C.3     1  UNL1        0.0279
     33 C          64.1636   84.4590   14.8481 C.3     1  UNL1        0.0460
     34 C          63.4730   84.2071   13.5406 C.2     1  UNL1        0.0507
     35 O          63.9491   83.1053   12.6409 O.co2   1  UNL1       -0.5492
     36 O          62.3061   85.0568   13.1328 O.co2   1  UNL1       -0.5492
@<TRIPOS>UNITY_ATOM_ATTR
35 1
charge -1
@<TRIPOS>BOND
     1    17    18    1
     2    18    16    1
     3    16     1    1
     4     1     2   ar
     5     2     3   ar
     6     3     7    1
     7     7     8    2
     8     8     9    1
     9     9    10    1
    10    10    11    1
    11    11    12    1
    12    12    13    1
    13    13    14    1
    14    14    15    1
    15     3     4   ar
    16     4     5   ar
    17     5     6   ar
    18     6    19    1
    19    19    20    1
    20    20    21    1
    21    21    22    1
    22    22    23    1
    23    23    24    1
    24    24    25   ar
    25    25    26   ar
    26    26    27   ar
    27    27    28   ar
    28    28    29   ar
    29    28    30    1
    30    30    31    1
    31    31    32    1
    32    32    33    1
    33    33    34    1
    34    34    35   ar
    35    34    36   ar
    36     6     1   ar
    37    29    24   ar
    38    15     7    1
    39    32    27    1
    40    14     9    1
@<TRIPOS>MOLECULE
*****
 36 40 0 0 0
SMALL
GASTEIGER

@<TRIPOS>ATOM
      1 C          61.2021   89.1373    9.6928 C.ar    1  UNL1        0.0118
      2 C          61.7955   88.0240   10.5041 C.ar    1  UNL1        0.0007
      3 C          61.4520   86.5989   10.1864 C.ar    1  UNL1        0.0231
      4 C          60.5149   86.2872    9.0574 C.ar    1  UNL1        0.0051
      5 C          59.9214   87.4005    8.2461 C.ar    1  UNL1        0.0366
      6 C          60.2650   88.8256    8.5638 C.ar    1  UNL1        0.1345
      7 C          62.0454   85.4855   10.9977 C.2     1  UNL1        0.1040
      8 N          62.0336   85.3816   12.4940 N.2     1  UNL1       -0.2361
      9 C          62.7358   84.1125   12.8762 C.3     1  UNL1        0.2301
     10 O          63.0268   83.4886   14.2089 O.3     1  UNL1       -0.3338
     11 C          63.7636   82.1841   14.2814 C.3     1  UNL1        0.1444
     12 C          64.2095   81.5035   13.0212 C.3     1  UNL1        0.0332
     13 C          63.9185   82.1274   11.6886 C.3     1  UNL1        0.0183
     14 C          63.1816   83.4319   11.6161 C.3     1  UNL1        0.1042
     15 S          62.7550   84.2805   10.4551 S.3     1  UNL1       -0.0916
     16 C          61.5457   90.5625   10.0106 C.3     1  UNL1        0.0294
     17 C          63.5130   90.9209   11.6694 C.3     1  UNL1        0.0004
     18 C          62.9712   90.9502   10.2709 C.3     1  UNL1        0.0048
     19 O          59.6716   89.9390    7.7525 O.3     1  UNL1       -0.4756
     20 C          59.3425   89.7197    6.3056 C.3     1  UNL1        0.2092
     21 C          58.6381   90.7903    5.5261 C.3     1  UNL1        0.0946
     22 C          59.4307   91.8639    4.8411 C.3     1  UNL1        0.2093
     23 O          58.9712   92.4090    3.5213 O.3     1  UNL1       -0.4753
     24 C          59.9766   92.7752    2.4701 C.ar    1  UNL1        0.1382
     25 C          59.5153   93.2552    1.1259 C.ar    1  UNL1        0.0366
     26 C          60.5207   93.6214    0.0747 C.ar    1  UNL1       -0.0015
     27 C          61.9874   93.5075    0.3677 C.ar    1  UNL1       -0.0259
     28 C          62.4487   93.0275    1.7118 C.ar    1  UNL1       -0.0231
     29 C          61.4433   92.6613    2.7631 C.ar    1  UNL1        0.0323
     30 C          63.9487   93.0177    1.7108 C.3     1  UNL1        0.0265
     31 C          64.4144   93.4916    0.3660 C.3     1  UNL1        0.0094
     32 C          63.2023   93.7944   -0.4641 C.3     1  UNL1        0.0279
     33 C          63.2046   94.2960   -1.8777 C.3     1  UNL1        0.0460
     34 C          62.6077   93.4602   -2.9710 C.2     1  UNL1        0.0507
     35 O          63.4778   92.5313   -3.7649 O.co2   1  UNL1       -0.5492
     36 O          61.1409   93.5532   -3.2704 O.co2   1  UNL1       -0.5492
@<TRIPOS>UNITY_ATOM_ATTR
35 1
charge -1
@<TRIPOS>BOND
     1    17    18    1
     2    18    16    1
     3    16     1    1
     4     1     2   ar
     5     2     3   ar
     6     3     7    1
     7     7     8    2
     8     8     9    1
     9     9    10    1
    10    10    11    1
    11    11    12    1
    12    12    13    1
    13    13    14    1
    14    14    15    1
    15     3     4   ar
    16     4     5   ar
    17     5     6   ar
    18     6    19    1
    19    19    20    1
    20    20    21    1
    21    21    22    1
    22    22    23    1
    23    23    24    1
    24    24    25   ar
    25    25    26   ar
    26    26    27   ar
    27    27    28   ar
    28    28    29   ar
    29    28    30    1
    30    30    31    1
    31    31    32    1
    32    32    33    1
    33    33    34    1
    34    34    35   ar
    35    34    36   ar
    36     6     1   ar
    37    29    24   ar
    38    15     7    1
    39    32    27    1
    40    14     9    1
@<TRIPOS>MOLECULE
*****
 36 40 0 0 0
SMALL
GASTEIGER

@<TRIPOS>ATOM
      1 C          60.7740   89.3880    9.5293 C.ar    1  UNL1        0.0118
      2 C          61.7285   90.2673   10.2814 C.ar    1  UNL1        0.0007
      3 C          62.6217   89.6781   11.3326 C.ar    1  UNL1        0.0231
      4 C          62.5603   88.2095   11.6317 C.ar    1  UNL1        0.0051
      5 C          61.6057   87.3302   10.8796 C.ar    1  UNL1        0.0366
      6 C          60.7126   87.9194    9.8284 C.ar    1  UNL1        0.1345
      7 C          63.5762   90.5574   12.0847 C.2     1  UNL1        0.1040
      8 N          64.2704   91.7715   11.5425 N.2     1  UNL1       -0.2361
      9 C          65.1274   92.3415   12.6337 C.3     1  UNL1        0.2301
     10 O          66.0363   93.5339   12.6767 O.3     1  UNL1       -0.3338
     11 C          66.7807   93.8645   13.9363 C.3     1  UNL1        0.1444
     12 C          66.6162   93.0026   15.1529 C.3     1  UNL1        0.0332
     13 C          65.7073   91.8101   15.1099 C.3     1  UNL1        0.0183
     14 C          64.9629   91.4796   13.8503 C.3     1  UNL1        0.1042
     15 S          64.0042   90.3770   13.5109 S.3     1  UNL1       -0.0916
     16 C          59.8808   89.9773    8.4781 C.3     1  UNL1        0.0294
     17 C          59.2381   90.0507    5.9618 C.3     1  UNL1        0.0004
     18 C          59.7161   89.2831    7.1587 C.3     1  UNL1        0.0048
     19 O          59.7580   87.0401    9.0763 O.3     1  UNL1       -0.4756
     20 C          60.2803   85.9148    8.2332 C.3     1  UNL1        0.2092
     21 C          61.6916   85.9499    7.7263 C.3     1  UNL1        0.0946
     22 C          62.4497   84.6707    7.5291 C.3     1  UNL1        0.2093
     23 O          63.5795   84.3186    8.4508 O.3     1  UNL1       -0.4753
     24 C          63.2915   83.8669    9.8518 C.ar    1  UNL1        0.1382
     25 C          62.9715   84.8761   10.9145 C.ar    1  UNL1        0.0366
     26 C          62.6834   84.4244   12.3155 C.ar    1  UNL1       -0.0015
     27 C          62.7154   82.9634   12.6540 C.ar    1  UNL1       -0.0259
     28 C          63.0354   81.9542   11.5914 C.ar    1  UNL1       -0.0231
     29 C          63.3234   82.4059   10.1903 C.ar    1  UNL1        0.0323
     30 C          62.9936   80.5921   12.2182 C.3     1  UNL1        0.0265
     31 C          62.6478   80.7595   13.6682 C.3     1  UNL1        0.0094
     32 C          62.4759   82.2250   13.9375 C.3     1  UNL1        0.0279
     33 C          62.1259   82.8436   15.2584 C.3     1  UNL1        0.0460
     34 C          62.7392   84.1524   15.6596 C.2     1  UNL1        0.0507
     35 O          64.2021   84.3954   15.4346 O.co2   1  UNL1       -0.5492
     36 O          61.8895   85.2182   16.2859 O.co2   1  UNL1       -0.5492
@<TRIPOS>UNITY_ATOM_ATTR
35 1
charge -1
@<TRIPOS>BOND
     1    17    18    1
     2    18    16    1
     3    16     1    1
     4     1     2   ar
     5     2     3   ar
     6     3     7    1
     7     7     8    2
     8     8     9    1
     9     9    10    1
    10    10    11    1
    11    11    12    1
    12    12    13    1
    13    13    14    1
    14    14    15    1
    15     3     4   ar
    16     4     5   ar
    17     5     6   ar
    18     6    19    1
    19    19    20    1
    20    20    21    1
    21    21    22    1
    22    22    23    1
    23    23    24    1
    24    24    25   ar
    25    25    26   ar
    26    26    27   ar
    27    27    28   ar
    28    28    29   ar
    29    28    30    1
    30    30    31    1
    31    31    32    1
    32    32    33    1
    33    33    34    1
    34    34    35   ar
    35    34    36   ar
    36     6     1   ar
    37    29    24   ar
    38    15     7    1
    39    32    27    1
    40    14     9    1
@<TRIPOS>MOLECULE
*****
 36 40 0 0 0
SMALL
GASTEIGER

@<TRIPOS>ATOM
      1 C          61.8293   87.6300   10.1740 C.ar    1  UNL1        0.0118
      2 C          62.8080   88.4107   11.0002 C.ar    1  UNL1        0.0007
      3 C          62.5143   89.8363   11.3626 C.ar    1  UNL1        0.0231
      4 C          61.2420   90.4812   10.8989 C.ar    1  UNL1        0.0051
      5 C          60.2632   89.7004   10.0727 C.ar    1  UNL1        0.0366
      6 C          60.5569   88.2748    9.7103 C.ar    1  UNL1        0.1345
      7 C          63.4931   90.6170   12.1888 C.2     1  UNL1        0.1040
      8 N          64.3635   91.7367   11.7004 N.2     1  UNL1       -0.2361
      9 C          65.1816   92.2268   12.8582 C.3     1  UNL1        0.2301
     10 O          66.2116   93.3113   12.9716 O.3     1  UNL1       -0.3338
     11 C          66.8768   93.5790   14.2891 C.3     1  UNL1        0.1444
     12 C          66.5120   92.7622   15.4931 C.3     1  UNL1        0.0332
     13 C          65.4820   91.6777   15.3797 C.3     1  UNL1        0.0183
     14 C          64.8168   91.4100   14.0622 C.3     1  UNL1        0.1042
     15 S          63.7733   90.4151   13.6485 S.3     1  UNL1       -0.0916
     16 C          62.1230   86.2043    9.8116 C.3     1  UNL1        0.0294
     17 C          63.2632   84.0333   10.6701 C.3     1  UNL1        0.0004
     18 C          62.3245   85.1823   10.8909 C.3     1  UNL1        0.0048
     19 O          59.5782   87.4941    8.8841 O.3     1  UNL1       -0.4756
     20 C          58.8680   88.1544    7.7397 C.3     1  UNL1        0.2092
     21 C          59.6029   89.1197    6.8576 C.3     1  UNL1        0.0946
     22 C          58.8828   89.8089    5.7366 C.3     1  UNL1        0.2093
     23 O          59.0332   91.2892    5.5465 O.3     1  UNL1       -0.4753
     24 C          59.9697   91.8199    4.5019 C.ar    1  UNL1        0.1382
     25 C          61.3597   91.2672    4.3903 C.ar    1  UNL1        0.0366
     26 C          62.2962   91.7979    3.3456 C.ar    1  UNL1       -0.0015
     27 C          61.8428   92.8814    2.4126 C.ar    1  UNL1       -0.0259
     28 C          60.4529   93.4341    2.5242 C.ar    1  UNL1       -0.0231
     29 C          59.5163   92.9034    3.5689 C.ar    1  UNL1        0.0323
     30 C          60.2886   94.4912    1.4729 C.3     1  UNL1        0.0265
     31 C          61.5770   94.5919    0.7114 C.3     1  UNL1        0.0094
     32 C          62.5376   93.5969    1.2922 C.3     1  UNL1        0.0279
     33 C          63.9457   93.3592    0.8333 C.3     1  UNL1        0.0460
     34 C          64.4542   94.0330   -0.4066 C.2     1  UNL1        0.0507
     35 O          63.8782   93.6753   -1.7446 O.co2   1  UNL1       -0.5492
     36 O          65.5388   95.0645   -0.3086 O.co2   1  UNL1       -0.5492
@<TRIPOS>UNITY_ATOM_ATTR
35 1
charge -1
@<TRIPOS>BOND
     1    17    18    1
     2    18    16    1
     3    16     1    1
     4     1     2   ar
     5     2     3   ar
     6     3     7    1
     7     7     8    2
     8     8     9    1
     9     9    10    1
    10    10    11    1
    11    11    12    1
    12    12    13    1
    13    13    14    1
    14    14    15    1
    15     3     4   ar
    16     4     5   ar
    17     5     6   ar
    18     6    19    1
    19    19    20    1
    20    20    21    1
    21    21    22    1
    22    22    23    1
    23    23    24    1
    24    24    25   ar
    25    25    26   ar
    26    26    27   ar
    27    27    28   ar
    28    28    29   ar
    29    28    30    1
    30    30    31    1
    31    31    32    1
    32    32    33    1
    33    33    34    1
    34    34    35   ar
    35    34    36   ar
    36     6     1   ar
    37    29    24   ar
    38    15     7    1
    39    32    27    1
    40    14     9    1
@<TRIPOS>MOLECULE
*****
 36 40 0 0 0
SMALL
GASTEIGER

@<TRIPOS>ATOM
      1 C          61.0276   89.1157    9.8197 C.ar    1  UNL1        0.0118
      2 C          61.5925   88.0111   10.6629 C.ar    1  UNL1        0.0007
      3 C          61.3995   86.5811   10.2531 C.ar    1  UNL1        0.0231
      4 C          60.6417   86.2558    9.0002 C.ar    1  UNL1        0.0051
      5 C          60.0769   87.3603    8.1571 C.ar    1  UNL1        0.0366
      6 C          60.2698   88.7903    8.5668 C.ar    1  UNL1        0.1345
      7 C          61.9644   85.4766   11.0962 C.2     1  UNL1        0.1040
      8 N          62.1072   85.4920   12.5893 N.2     1  UNL1       -0.2361
      9 C          62.7167   84.1876   13.0102 C.3     1  UNL1        0.2301
     10 O          63.0889   83.6418   14.3569 O.3     1  UNL1       -0.3338
     11 C          63.6950   82.2745   14.4705 C.3     1  UNL1        0.1444
     12 C          63.9289   81.4529   13.2375 C.3     1  UNL1        0.0332
     13 C          63.5566   81.9987   11.8909 C.3     1  UNL1        0.0183
     14 C          62.9505   83.3660   11.7772 C.3     1  UNL1        0.1042
     15 S          62.4856   84.1626   10.5943 S.3     1  UNL1       -0.0916
     16 C          61.2206   90.5457   10.2296 C.3     1  UNL1        0.0294
     17 C          63.6137   91.5442   10.3909 C.3     1  UNL1        0.0004
     18 C          62.4126   90.9358   11.0522 C.3     1  UNL1        0.0048
     19 O          59.7050   89.8948    7.7237 O.3     1  UNL1       -0.4756
     20 C          59.3993   89.6516    6.2755 C.3     1  UNL1        0.2092
     21 C          58.7412   90.7230    5.4576 C.3     1  UNL1        0.0946
     22 C          59.5779   91.7533    4.7586 C.3     1  UNL1        0.2093
     23 O          59.0243   92.4929    3.5768 O.3     1  UNL1       -0.4753
     24 C          59.8938   92.7581    2.3836 C.ar    1  UNL1        0.1382
     25 C          61.3871   92.7368    2.5241 C.ar    1  UNL1        0.0366
     26 C          62.2565   93.0020    1.3309 C.ar    1  UNL1       -0.0015
     27 C          61.6327   93.2886   -0.0028 C.ar    1  UNL1       -0.0259
     28 C          60.1395   93.3099   -0.1433 C.ar    1  UNL1       -0.0231
     29 C          59.2700   93.0447    1.0499 C.ar    1  UNL1        0.0323
     30 C          59.8129   93.6195   -1.5742 C.3     1  UNL1        0.0265
     31 C          61.1043   93.7895   -2.3181 C.3     1  UNL1        0.0094
     32 C          62.2290   93.5850   -1.3469 C.3     1  UNL1        0.0279
     33 C          63.6930   93.6631   -1.6640 C.3     1  UNL1        0.0460
     34 C          64.4745   94.8910   -1.3012 C.2     1  UNL1        0.0507
     35 O          64.8309   95.8930   -2.3590 O.co2   1  UNL1       -0.5492
     36 O          64.8995   95.1169    0.1194 O.co2   1  UNL1       -0.5492
@<TRIPOS>UNITY_ATOM_ATTR
35 1
charge -1
@<TRIPOS>BOND
     1    17    18    1
     2    18    16    1
     3    16     1    1
     4     1     2   ar
     5     2     3   ar
     6     3     7    1
     7     7     8    2
     8     8     9    1
     9     9    10    1
    10    10    11    1
    11    11    12    1
    12    12    13    1
    13    13    14    1
    14    14    15    1
    15     3     4   ar
    16     4     5   ar
    17     5     6   ar
    18     6    19    1
    19    19    20    1
    20    20    21    1
    21    21    22    1
    22    22    23    1
    23    23    24    1
    24    24    25   ar
    25    25    26   ar
    26    26    27   ar
    27    27    28   ar
    28    28    29   ar
    29    28    30    1
    30    30    31    1
    31    31    32    1
    32    32    33    1
    33    33    34    1
    34    34    35   ar
    35    34    36   ar
    36     6     1   ar
    37    29    24   ar
    38    15     7    1
    39    32    27    1
    40    14     9    1
