@<TRIPOS>MOLECULE
*****
 33 35 0 0 0
SMALL
GASTEIGER

@<TRIPOS>ATOM
      1 C          63.5033   89.0011   16.0513 C.2     1  UNL1        0.2316
      2 O          62.7871   88.2503   17.1347 O.2     1  UNL1       -0.2744
      3 N          64.2254   88.2518   14.9710 N.am    1  UNL1       -0.2677
      4 H          64.6954   88.7446   14.2600 H       1  UNL1        0.1563
      5 C          64.2314   86.7518   14.9739 C.ar    1  UNL1        0.1555
      6 C          65.4411   85.8747   14.8417 C.ar    1  UNL1        0.0564
      7 C          64.9861   84.4464   14.8957 C.ar    1  UNL1        0.0985
      8 N          63.4953   84.4407   15.0613 N.ar    1  UNL1       -0.2421
      9 N          63.0289   85.8656   15.1096 N.ar    1  UNL1       -0.1536
     10 C          62.6239   83.2239   15.1609 C.3     1  UNL1        0.1728
     11 C          62.6512   82.1908   14.0739 C.ar    1  UNL1        0.0837
     12 C          62.9401   82.5977   12.6594 C.ar    1  UNL1        0.0174
     13 C          62.9674   81.5646   11.5723 C.ar    1  UNL1        0.0131
     14 C          62.7060   80.1243   11.8998 C.ar    1  UNL1        0.0875
     15 C          62.4171   79.7172   13.3143 C.ar    1  UNL1        0.1087
     16 N          62.3898   80.7505   14.4014 N.ar    1  UNL1       -0.2454
     17 C          62.7333   79.0911   10.8127 C.1     1  UNL1        0.1020
     18 N          62.7607   78.0578    9.7256 N.1     1  UNL1       -0.1908
     19 C          63.4973   90.5010   16.0484 C.3     1  UNL1        0.1117
     20 C          67.6682   93.4858   15.2150 C.3     1  UNL1        0.0342
     21 C          66.4747   92.7452   14.6886 C.ar    1  UNL1        0.0118
     22 C          65.5827   91.9934   15.6316 C.ar    1  UNL1       -0.0050
     23 C          64.3892   91.2528   15.1053 C.ar    1  UNL1       -0.0132
     24 C          64.0877   91.2638   13.6360 C.ar    1  UNL1       -0.0007
     25 C          64.9797   92.0155   12.6930 C.ar    1  UNL1        0.0363
     26 C          66.1732   92.7562   13.2193 C.ar    1  UNL1        0.1345
     27 O          67.0652   93.5079   12.2762 O.3     1  UNL1       -0.4755
     28 C          66.4834   94.1768   11.0663 C.3     1  UNL1        0.2142
     29 C          66.7959   93.6521    9.6962 C.3     1  UNL1        0.1504
     30 C          68.1381   93.0450    9.4137 C.3     1  UNL1        0.4014
     31 F          69.4803   92.4378    9.1312 F       1  UNL1       -0.1699
     32 F          68.6930   94.4075    9.1216 F       1  UNL1       -0.1699
     33 F          67.5832   91.6824    9.7058 F       1  UNL1       -0.1699
@<TRIPOS>BOND
     1    20    21    1
     2    21    22   ar
     3    22    23   ar
     4    23    19    1
     5    19     1    1
     6     1     2    2
     7     1     3   am
     8     3     5    1
     9     5     6   ar
    10     6     7   ar
    11     7     8   ar
    12     8    10    1
    13    10    11    1
    14    11    12   ar
    15    12    13   ar
    16    13    14   ar
    17    14    17    1
    18    17    18    3
    19    14    15   ar
    20    15    16   ar
    21     8     9   ar
    22    23    24   ar
    23    24    25   ar
    24    25    26   ar
    25    26    27    1
    26    27    28    1
    27    28    29    1
    28    29    30    1
    29    30    31    1
    30    30    32    1
    31    30    33    1
    32    26    21   ar
    33     9     5   ar
    34    16    11   ar
    35     3     4    1
@<TRIPOS>MOLECULE
*****
 33 35 0 0 0
SMALL
GASTEIGER

@<TRIPOS>ATOM
      1 C          63.6696   88.9266   15.3887 C.2     1  UNL1        0.2316
      2 O          63.7595   88.5121   13.9499 O.2     1  UNL1       -0.2744
      3 N          63.4187   87.8980   16.4513 N.am    1  UNL1       -0.2677
      4 H          63.3596   88.1701   17.3956 H       1  UNL1        0.1563
      5 C          63.2576   86.4549   16.0751 C.ar    1  UNL1        0.1555
      6 C          62.5379   85.4102   16.8753 C.ar    1  UNL1        0.0564
      7 C          62.6235   84.1127   16.1274 C.ar    1  UNL1        0.0985
      8 N          63.3962   84.3556   14.8649 N.ar    1  UNL1       -0.2421
      9 N          63.7881   85.8032   14.8326 N.ar    1  UNL1       -0.1536
     10 C          63.7202   83.3309   13.8185 C.3     1  UNL1        0.1728
     11 C          63.5207   83.6523   12.3670 C.ar    1  UNL1        0.0837
     12 C          64.2623   82.8773   11.3184 C.ar    1  UNL1        0.0174
     13 C          64.0629   83.1987    9.8670 C.ar    1  UNL1        0.0131
     14 C          63.1218   84.2950    9.4639 C.ar    1  UNL1        0.0875
     15 C          62.3802   85.0700   10.5125 C.ar    1  UNL1        0.1087
     16 N          62.5797   84.7486   11.9640 N.ar    1  UNL1       -0.2454
     17 C          62.9224   84.6164    8.0124 C.1     1  UNL1        0.1020
     18 N          62.7229   84.9378    6.5609 N.1     1  UNL1       -0.1908
     19 C          63.8306   90.3697   15.7649 C.3     1  UNL1        0.1117
     20 C          67.7120   93.7762   15.1899 C.3     1  UNL1        0.0342
     21 C          66.5762   92.9901   14.6050 C.ar    1  UNL1        0.0118
     22 C          65.7713   92.0729   15.4773 C.ar    1  UNL1       -0.0050
     23 C          64.6355   91.2869   14.8925 C.ar    1  UNL1       -0.0132
     24 C          64.3046   91.4179   13.4354 C.ar    1  UNL1       -0.0007
     25 C          65.1095   92.3350   12.5631 C.ar    1  UNL1        0.0363
     26 C          66.2453   93.1211   13.1479 C.ar    1  UNL1        0.1345
     27 O          67.0502   94.0383   12.2755 O.3     1  UNL1       -0.4755
     28 C          66.4600   94.5745   11.0051 C.3     1  UNL1        0.2142
     29 C          66.7108   93.8691    9.7052 C.3     1  UNL1        0.1504
     30 C          68.0133   93.1617    9.4749 C.3     1  UNL1        0.4014
     31 F          69.3159   92.4544    9.2446 F       1  UNL1       -0.1699
     32 F          68.6010   94.4249    8.9191 F       1  UNL1       -0.1699
     33 F          67.4257   91.8986   10.0308 F       1  UNL1       -0.1699
@<TRIPOS>BOND
     1    20    21    1
     2    21    22   ar
     3    22    23   ar
     4    23    19    1
     5    19     1    1
     6     1     2    2
     7     1     3   am
     8     3     5    1
     9     5     6   ar
    10     6     7   ar
    11     7     8   ar
    12     8    10    1
    13    10    11    1
    14    11    12   ar
    15    12    13   ar
    16    13    14   ar
    17    14    17    1
    18    17    18    3
    19    14    15   ar
    20    15    16   ar
    21     8     9   ar
    22    23    24   ar
    23    24    25   ar
    24    25    26   ar
    25    26    27    1
    26    27    28    1
    27    28    29    1
    28    29    30    1
    29    30    31    1
    30    30    32    1
    31    30    33    1
    32    26    21   ar
    33     9     5   ar
    34    16    11   ar
    35     3     4    1
@<TRIPOS>MOLECULE
*****
 33 35 0 0 0
SMALL
GASTEIGER

@<TRIPOS>ATOM
      1 C          64.0837   89.4372   14.7385 C.2     1  UNL1        0.2316
      2 O          62.7495   89.4741   14.0539 O.2     1  UNL1       -0.2744
      3 N          64.8219   88.1385   14.8733 N.am    1  UNL1       -0.2677
      4 H          65.6976   88.1143   15.3226 H       1  UNL1        0.1563
      5 C          64.2260   86.8765   14.3234 C.ar    1  UNL1        0.1555
      6 C          64.2764   85.5234   14.9689 C.ar    1  UNL1        0.0564
      7 C          63.5565   84.5567   14.0760 C.ar    1  UNL1        0.0985
      8 N          63.0612   85.3123   12.8786 N.ar    1  UNL1       -0.2421
      9 N          63.4749   86.7460   13.0315 N.ar    1  UNL1       -0.1536
     10 C          62.2879   84.7356   11.7300 C.3     1  UNL1        0.1728
     11 C          61.6449   85.6460   10.7263 C.ar    1  UNL1        0.0837
     12 C          61.8497   85.4093    9.2593 C.ar    1  UNL1        0.0174
     13 C          61.2067   86.3197    8.2557 C.ar    1  UNL1        0.0131
     14 C          60.3587   87.4670    8.7189 C.ar    1  UNL1        0.0875
     15 C          60.1538   87.7038   10.1858 C.ar    1  UNL1        0.1087
     16 N          60.7969   86.7933   11.1895 N.ar    1  UNL1       -0.2454
     17 C          59.7156   88.3776    7.7152 C.1     1  UNL1        0.1020
     18 N          59.0725   89.2881    6.7115 N.1     1  UNL1       -0.1908
     19 C          64.6797   90.6992   15.2883 C.3     1  UNL1        0.1117
     20 C          64.9171   92.7896   10.5371 C.3     1  UNL1        0.0342
     21 C          65.3294   92.7917   11.9794 C.ar    1  UNL1        0.0118
     22 C          64.7984   91.7444   12.9127 C.ar    1  UNL1       -0.0050
     23 C          65.2107   91.7466   14.3550 C.ar    1  UNL1       -0.0132
     24 C          66.1539   92.7960   14.8638 C.ar    1  UNL1       -0.0007
     25 C          66.6849   93.8433   13.9305 C.ar    1  UNL1        0.0363
     26 C          66.2726   93.8412   12.4883 C.ar    1  UNL1        0.1345
     27 O          66.8036   94.8885   11.5549 O.3     1  UNL1       -0.4755
     28 C          67.0418   94.5559   10.1118 C.3     1  UNL1        0.2142
     29 C          68.3292   93.9094    9.6937 C.3     1  UNL1        0.1504
     30 C          68.3505   92.4594    9.3105 C.3     1  UNL1        0.4014
     31 F          68.3718   91.0093    8.9274 F       1  UNL1       -0.1699
     32 F          68.2509   92.0757   10.7572 F       1  UNL1       -0.1699
     33 F          68.4501   92.8430    7.8639 F       1  UNL1       -0.1699
@<TRIPOS>BOND
     1    20    21    1
     2    21    22   ar
     3    22    23   ar
     4    23    19    1
     5    19     1    1
     6     1     2    2
     7     1     3   am
     8     3     5    1
     9     5     6   ar
    10     6     7   ar
    11     7     8   ar
    12     8    10    1
    13    10    11    1
    14    11    12   ar
    15    12    13   ar
    16    13    14   ar
    17    14    17    1
    18    17    18    3
    19    14    15   ar
    20    15    16   ar
    21     8     9   ar
    22    23    24   ar
    23    24    25   ar
    24    25    26   ar
    25    26    27    1
    26    27    28    1
    27    28    29    1
    28    29    30    1
    29    30    31    1
    30    30    32    1
    31    30    33    1
    32    26    21   ar
    33     9     5   ar
    34    16    11   ar
    35     3     4    1
@<TRIPOS>MOLECULE
*****
 33 35 0 0 0
SMALL
GASTEIGER

@<TRIPOS>ATOM
      1 C          59.5990   88.5934    8.0031 C.2     1  UNL1        0.2316
      2 O          60.4694   89.7167    8.4832 O.2     1  UNL1       -0.2744
      3 N          58.8675   88.7159    6.6993 N.am    1  UNL1       -0.2677
      4 H          58.2962   87.9786    6.3842 H       1  UNL1        0.1563
      5 C          59.0065   89.9617    5.8755 C.ar    1  UNL1        0.1555
      6 C          57.9146   90.9443    5.5719 C.ar    1  UNL1        0.0564
      7 C          58.4951   92.0335    4.7195 C.ar    1  UNL1        0.0985
      8 N          59.9457   91.7241    4.4962 N.ar    1  UNL1       -0.2421
      9 N          60.2618   90.4436    5.2107 N.ar    1  UNL1       -0.1536
     10 C          60.9109   92.5500    3.6986 C.3     1  UNL1        0.1728
     11 C          60.6591   92.7985    2.2409 C.ar    1  UNL1        0.0837
     12 C          61.6806   92.3869    1.2225 C.ar    1  UNL1        0.0174
     13 C          61.4289   92.6354   -0.2351 C.ar    1  UNL1        0.0131
     14 C          60.1556   93.2955   -0.6745 C.ar    1  UNL1        0.0875
     15 C          59.1341   93.7071    0.3439 C.ar    1  UNL1        0.1087
     16 N          59.3859   93.4586    1.8016 N.ar    1  UNL1       -0.2454
     17 C          59.9038   93.5440   -2.1322 C.1     1  UNL1        0.1020
     18 N          59.6521   93.7925   -3.5899 N.1     1  UNL1       -0.1908
     19 C          59.4600   87.3475    8.8269 C.3     1  UNL1        0.1117
     20 C          62.7661   85.3111   12.2798 C.3     1  UNL1        0.0342
     21 C          62.3207   85.4938   10.8592 C.ar    1  UNL1        0.0118
     22 C          61.1131   86.3293   10.5533 C.ar    1  UNL1       -0.0050
     23 C          60.6676   86.5120    9.1327 C.ar    1  UNL1       -0.0132
     24 C          61.4298   85.8592    8.0179 C.ar    1  UNL1       -0.0007
     25 C          62.6374   85.0237    8.3237 C.ar    1  UNL1        0.0363
     26 C          63.0829   84.8410    9.7443 C.ar    1  UNL1        0.1345
     27 O          64.2905   84.0054   10.0501 O.3     1  UNL1       -0.4755
     28 C          64.1307   82.5550   10.3973 C.3     1  UNL1        0.2142
     29 C          64.2843   82.1027   11.8193 C.3     1  UNL1        0.1504
     30 C          63.1105   81.5260   12.5538 C.3     1  UNL1        0.4014
     31 F          61.9367   80.9493   13.2883 F       1  UNL1       -0.1699
     32 F          62.1786   82.1726   11.5723 F       1  UNL1       -0.1699
     33 F          64.0424   80.8794   13.5353 F       1  UNL1       -0.1699
@<TRIPOS>BOND
     1    20    21    1
     2    21    22   ar
     3    22    23   ar
     4    23    19    1
     5    19     1    1
     6     1     2    2
     7     1     3   am
     8     3     5    1
     9     5     6   ar
    10     6     7   ar
    11     7     8   ar
    12     8    10    1
    13    10    11    1
    14    11    12   ar
    15    12    13   ar
    16    13    14   ar
    17    14    17    1
    18    17    18    3
    19    14    15   ar
    20    15    16   ar
    21     8     9   ar
    22    23    24   ar
    23    24    25   ar
    24    25    26   ar
    25    26    27    1
    26    27    28    1
    27    28    29    1
    28    29    30    1
    29    30    31    1
    30    30    32    1
    31    30    33    1
    32    26    21   ar
    33     9     5   ar
    34    16    11   ar
    35     3     4    1
@<TRIPOS>MOLECULE
*****
 33 35 0 0 0
SMALL
GASTEIGER

@<TRIPOS>ATOM
      1 C          62.9352   88.5439   12.3079 C.2     1  UNL1        0.2316
      2 O          62.5374   87.2847   11.5962 O.2     1  UNL1       -0.2744
      3 N          63.6311   88.4678   13.6345 N.am    1  UNL1       -0.2677
      4 H          63.8921   89.2942   14.1015 H       1  UNL1        0.1563
      5 C          63.9293   87.1325   14.2495 C.ar    1  UNL1        0.1555
      6 C          65.2136   86.7353   14.9148 C.ar    1  UNL1        0.0564
      7 C          65.0736   85.3174   15.3836 C.ar    1  UNL1        0.0985
      8 N          63.7027   84.8382   15.0081 N.ar    1  UNL1       -0.2421
      9 N          62.9955   85.9601   14.3071 N.ar    1  UNL1       -0.1536
     10 C          63.1381   83.4764   15.2849 C.3     1  UNL1        0.1728
     11 C          63.0439   82.4651   14.1812 C.ar    1  UNL1        0.0837
     12 C          63.4917   82.8235   12.7951 C.ar    1  UNL1        0.0174
     13 C          63.3975   81.8122   11.6915 C.ar    1  UNL1        0.0131
     14 C          62.8554   80.4423   11.9737 C.ar    1  UNL1        0.0875
     15 C          62.4076   80.0838   13.3596 C.ar    1  UNL1        0.1087
     16 N          62.5019   81.0952   14.4634 N.ar    1  UNL1       -0.2454
     17 C          62.7612   79.4309   10.8699 C.1     1  UNL1        0.1020
     18 N          62.6670   78.4195    9.7662 N.1     1  UNL1       -0.1908
     19 C          62.6370   89.8791   11.6929 C.3     1  UNL1        0.1117
     20 C          66.2116   92.6566   14.2439 C.3     1  UNL1        0.0342
     21 C          65.4649   92.3482   12.9801 C.ar    1  UNL1        0.0118
     22 C          64.4243   91.2679   12.9684 C.ar    1  UNL1       -0.0050
     23 C          63.6776   90.9595   11.7045 C.ar    1  UNL1       -0.0132
     24 C          63.9715   91.7312   10.4524 C.ar    1  UNL1       -0.0007
     25 C          65.0121   92.8115   10.4641 C.ar    1  UNL1        0.0363
     26 C          65.7588   93.1200   11.7279 C.ar    1  UNL1        0.1345
     27 O          66.7994   94.2003   11.7396 O.3     1  UNL1       -0.4755
     28 C          66.5722   95.4688   10.9720 C.3     1  UNL1        0.2142
     29 C          67.4030   95.7712    9.7602 C.3     1  UNL1        0.1504
     30 C          67.6686   94.6983    8.7461 C.3     1  UNL1        0.4014
     31 F          67.9342   93.6254    7.7321 F       1  UNL1       -0.1699
     32 F          66.5790   95.2510    7.8759 F       1  UNL1       -0.1699
     33 F          68.7582   94.1456    9.6163 F       1  UNL1       -0.1699
@<TRIPOS>BOND
     1    20    21    1
     2    21    22   ar
     3    22    23   ar
     4    23    19    1
     5    19     1    1
     6     1     2    2
     7     1     3   am
     8     3     5    1
     9     5     6   ar
    10     6     7   ar
    11     7     8   ar
    12     8    10    1
    13    10    11    1
    14    11    12   ar
    15    12    13   ar
    16    13    14   ar
    17    14    17    1
    18    17    18    3
    19    14    15   ar
    20    15    16   ar
    21     8     9   ar
    22    23    24   ar
    23    24    25   ar
    24    25    26   ar
    25    26    27    1
    26    27    28    1
    27    28    29    1
    28    29    30    1
    29    30    31    1
    30    30    32    1
    31    30    33    1
    32    26    21   ar
    33     9     5   ar
    34    16    11   ar
    35     3     4    1
@<TRIPOS>MOLECULE
*****
 33 35 0 0 0
SMALL
GASTEIGER

@<TRIPOS>ATOM
      1 C          63.9301   88.7704   14.9805 C.2     1  UNL1        0.2316
      2 O          63.3336   87.6633   15.7983 O.2     1  UNL1       -0.2744
      3 N          63.9349   88.6782   13.4834 N.am    1  UNL1       -0.2677
      4 H          64.3264   89.4048   12.9467 H       1  UNL1        0.1563
      5 C          63.3433   87.4789   12.8040 C.ar    1  UNL1        0.1555
      6 C          63.5358   86.0489   13.2139 C.ar    1  UNL1        0.0564
      7 C          62.7668   85.1852   12.2586 C.ar    1  UNL1        0.0985
      8 N          62.0990   86.0814   11.2582 N.ar    1  UNL1       -0.2421
      9 N          62.4553   87.4989   11.5952 N.ar    1  UNL1       -0.1536
     10 C          61.2279   85.6379   10.1205 C.3     1  UNL1        0.1728
     11 C          60.6394   86.6534    9.1864 C.ar    1  UNL1        0.0837
     12 C          59.9438   86.2069    7.9347 C.ar    1  UNL1        0.0174
     13 C          59.3554   87.2223    7.0007 C.ar    1  UNL1        0.0131
     14 C          59.4625   88.6844    7.3183 C.ar    1  UNL1        0.0875
     15 C          60.1581   89.1309    8.5699 C.ar    1  UNL1        0.1087
     16 N          60.7466   88.1154    9.5040 N.ar    1  UNL1       -0.2454
     17 C          58.8741   89.6999    6.3842 C.1     1  UNL1        0.1020
     18 N          58.2856   90.7154    5.4501 N.1     1  UNL1       -0.1908
     19 C          64.5217   89.9697   15.6600 C.3     1  UNL1        0.1117
     20 C          67.9365   93.8534   15.1537 C.3     1  UNL1        0.0342
     21 C          66.8254   93.0188   14.5891 C.ar    1  UNL1        0.0118
     22 C          66.2291   91.9116   15.4068 C.ar    1  UNL1       -0.0050
     23 C          65.1180   91.0769   14.8422 C.ar    1  UNL1       -0.0132
     24 C          64.6032   91.3494   13.4600 C.ar    1  UNL1       -0.0007
     25 C          65.1995   92.4565   12.6423 C.ar    1  UNL1        0.0363
     26 C          66.3106   93.2912   13.2068 C.ar    1  UNL1        0.1345
     27 O          66.9069   94.3984   12.3891 O.3     1  UNL1       -0.4755
     28 C          66.3780   94.6844   11.0149 C.3     1  UNL1        0.2142
     29 C          66.5866   93.6921    9.9094 C.3     1  UNL1        0.1504
     30 C          67.9694   93.2093    9.5861 C.3     1  UNL1        0.4014
     31 F          69.3523   92.7264    9.2628 F       1  UNL1       -0.1699
     32 F          67.7061   91.9446   10.3485 F       1  UNL1       -0.1699
     33 F          68.2327   94.4739    8.8237 F       1  UNL1       -0.1699
@<TRIPOS>BOND
     1    20    21    1
     2    21    22   ar
     3    22    23   ar
     4    23    19    1
     5    19     1    1
     6     1     2    2
     7     1     3   am
     8     3     5    1
     9     5     6   ar
    10     6     7   ar
    11     7     8   ar
    12     8    10    1
    13    10    11    1
    14    11    12   ar
    15    12    13   ar
    16    13    14   ar
    17    14    17    1
    18    17    18    3
    19    14    15   ar
    20    15    16   ar
    21     8     9   ar
    22    23    24   ar
    23    24    25   ar
    24    25    26   ar
    25    26    27    1
    26    27    28    1
    27    28    29    1
    28    29    30    1
    29    30    31    1
    30    30    32    1
    31    30    33    1
    32    26    21   ar
    33     9     5   ar
    34    16    11   ar
    35     3     4    1
@<TRIPOS>MOLECULE
*****
 33 35 0 0 0
SMALL
GASTEIGER

@<TRIPOS>ATOM
      1 C          62.7704   88.6333   12.0839 C.2     1  UNL1        0.2316
      2 O          62.7262   87.1385   11.9674 O.2     1  UNL1       -0.2744
      3 N          62.0246   89.4847   11.0995 N.am    1  UNL1       -0.2677
      4 H          62.0536   90.4658   11.1760 H       1  UNL1        0.1563
      5 C          61.2346   88.8413    9.9987 C.ar    1  UNL1        0.1555
      6 C          61.2063   87.3773    9.6733 C.ar    1  UNL1        0.0564
      7 C          60.2884   87.1801    8.5034 C.ar    1  UNL1        0.0985
      8 N          59.7494   88.5222    8.1058 N.ar    1  UNL1       -0.2421
      9 N          60.3342   89.5489    9.0299 N.ar    1  UNL1       -0.1536
     10 C          58.7934   88.7906    6.9815 C.3     1  UNL1        0.1728
     11 C          59.0506   89.9235    6.0327 C.ar    1  UNL1        0.0837
     12 C          60.4499   90.2216    5.5821 C.ar    1  UNL1        0.0174
     13 C          60.7071   91.3545    4.6333 C.ar    1  UNL1        0.0131
     14 C          59.5649   92.1895    4.1350 C.ar    1  UNL1        0.0875
     15 C          58.1656   91.8914    4.5856 C.ar    1  UNL1        0.1087
     16 N          57.9084   90.7584    5.5344 N.ar    1  UNL1       -0.2454
     17 C          59.8220   93.3224    3.1862 C.1     1  UNL1        0.1020
     18 N          60.0792   94.4554    2.2374 N.1     1  UNL1       -0.1908
     19 C          63.5604   89.2768   13.1847 C.3     1  UNL1        0.1117
     20 C          67.0329   92.8371   14.6899 C.3     1  UNL1        0.0342
     21 C          66.0563   92.3233   13.6739 C.ar    1  UNL1        0.0118
     22 C          65.2967   91.0570   13.9373 C.ar    1  UNL1       -0.0050
     23 C          64.3200   90.5432   12.9213 C.ar    1  UNL1       -0.0132
     24 C          64.1029   91.2957   11.6421 C.ar    1  UNL1       -0.0007
     25 C          64.8624   92.5621   11.3788 C.ar    1  UNL1        0.0363
     26 C          65.8391   93.0759   12.3947 C.ar    1  UNL1        0.1345
     27 O          66.5987   94.3423   12.1313 O.3     1  UNL1       -0.4755
     28 C          66.9267   94.7411   10.7230 C.3     1  UNL1        0.2142
     29 C          66.8430   93.7298    9.6183 C.3     1  UNL1        0.1504
     30 C          68.0790   93.0118    9.1636 C.3     1  UNL1        0.4014
     31 F          69.3150   92.2939    8.7088 F       1  UNL1       -0.1699
     32 F          68.0894   93.8272    7.9046 F       1  UNL1       -0.1699
     33 F          68.0686   92.1965   10.4225 F       1  UNL1       -0.1699
@<TRIPOS>BOND
     1    20    21    1
     2    21    22   ar
     3    22    23   ar
     4    23    19    1
     5    19     1    1
     6     1     2    2
     7     1     3   am
     8     3     5    1
     9     5     6   ar
    10     6     7   ar
    11     7     8   ar
    12     8    10    1
    13    10    11    1
    14    11    12   ar
    15    12    13   ar
    16    13    14   ar
    17    14    17    1
    18    17    18    3
    19    14    15   ar
    20    15    16   ar
    21     8     9   ar
    22    23    24   ar
    23    24    25   ar
    24    25    26   ar
    25    26    27    1
    26    27    28    1
    27    28    29    1
    28    29    30    1
    29    30    31    1
    30    30    32    1
    31    30    33    1
    32    26    21   ar
    33     9     5   ar
    34    16    11   ar
    35     3     4    1
@<TRIPOS>MOLECULE
*****
 33 35 0 0 0
SMALL
GASTEIGER

@<TRIPOS>ATOM
      1 C          59.0082   90.3305    5.8277 C.2     1  UNL1        0.2316
      2 O          57.9919   90.9807    4.9364 O.2     1  UNL1       -0.2744
      3 N          60.4718   90.5205    5.5598 N.am    1  UNL1       -0.2677
      4 H          61.1388   90.0937    6.1448 H       1  UNL1        0.1563
      5 C          60.9191   91.3607    4.4005 C.ar    1  UNL1        0.1555
      6 C          62.2722   91.3227    3.7542 C.ar    1  UNL1        0.0564
      7 C          62.2813   92.3250    2.6382 C.ar    1  UNL1        0.0985
      8 N          60.9337   92.9824    2.5948 N.ar    1  UNL1       -0.2421
      9 N          60.0919   92.3865    3.6839 N.ar    1  UNL1       -0.1536
     10 C          60.5035   94.0486    1.6314 C.3     1  UNL1        0.1728
     11 C          59.8765   93.6685    0.3229 C.ar    1  UNL1        0.0837
     12 C          60.6541   93.8133   -0.9516 C.ar    1  UNL1        0.0174
     13 C          60.0271   93.4331   -2.2601 C.ar    1  UNL1        0.0131
     14 C          58.6224   92.9080   -2.2942 C.ar    1  UNL1        0.0875
     15 C          57.8448   92.7632   -1.0197 C.ar    1  UNL1        0.1087
     16 N          58.4718   93.1434    0.2888 N.ar    1  UNL1       -0.2454
     17 C          57.9954   92.5278   -3.6027 C.1     1  UNL1        0.1020
     18 N          57.3683   92.1476   -4.9113 N.1     1  UNL1       -0.1908
     19 C          58.5609   89.4903    6.9870 C.3     1  UNL1        0.1117
     20 C          62.3289   88.9451   10.5233 C.3     1  UNL1        0.0342
     21 C          61.4325   88.3503    9.4780 C.ar    1  UNL1        0.0118
     22 C          60.4449   89.2176    8.7552 C.ar    1  UNL1       -0.0050
     23 C          59.5485   88.6229    7.7099 C.ar    1  UNL1       -0.0132
     24 C          59.6396   87.1608    7.3874 C.ar    1  UNL1       -0.0007
     25 C          60.6271   86.2935    8.1102 C.ar    1  UNL1        0.0363
     26 C          61.5235   86.8883    9.1555 C.ar    1  UNL1        0.1345
     27 O          62.5111   86.0209    9.8783 O.3     1  UNL1       -0.4755
     28 C          62.0603   85.1671   11.0262 C.3     1  UNL1        0.2142
     29 C          63.0124   84.1947   11.6570 C.3     1  UNL1        0.1504
     30 C          63.3318   82.9022   10.9660 C.3     1  UNL1        0.4014
     31 F          63.6511   81.6098   10.2750 F       1  UNL1       -0.1699
     32 F          62.2351   82.2223   11.7309 F       1  UNL1       -0.1699
     33 F          64.4284   83.5821   10.2012 F       1  UNL1       -0.1699
@<TRIPOS>BOND
     1    20    21    1
     2    21    22   ar
     3    22    23   ar
     4    23    19    1
     5    19     1    1
     6     1     2    2
     7     1     3   am
     8     3     5    1
     9     5     6   ar
    10     6     7   ar
    11     7     8   ar
    12     8    10    1
    13    10    11    1
    14    11    12   ar
    15    12    13   ar
    16    13    14   ar
    17    14    17    1
    18    17    18    3
    19    14    15   ar
    20    15    16   ar
    21     8     9   ar
    22    23    24   ar
    23    24    25   ar
    24    25    26   ar
    25    26    27    1
    26    27    28    1
    27    28    29    1
    28    29    30    1
    29    30    31    1
    30    30    32    1
    31    30    33    1
    32    26    21   ar
    33     9     5   ar
    34    16    11   ar
    35     3     4    1
@<TRIPOS>MOLECULE
*****
 33 35 0 0 0
SMALL
GASTEIGER

@<TRIPOS>ATOM
      1 C          62.7757   84.9791    9.0120 C.2     1  UNL1        0.2316
      2 O          62.8089   85.2135    7.5308 O.2     1  UNL1       -0.2744
      3 N          62.0224   85.9211    9.9037 N.am    1  UNL1       -0.2677
      4 H          62.0006   85.7673   10.8759 H       1  UNL1        0.1563
      5 C          61.3023   87.0976    9.3143 C.ar    1  UNL1        0.1555
      6 C          61.5079   88.5354    9.6890 C.ar    1  UNL1        0.0564
      7 C          60.5828   89.3692    8.8529 C.ar    1  UNL1        0.0985
      8 N          59.8055   88.4467    7.9614 N.ar    1  UNL1       -0.2421
      9 N          60.2502   87.0428    8.2466 N.ar    1  UNL1       -0.1536
     10 C          58.7660   88.8562    6.9605 C.3     1  UNL1        0.1728
     11 C          59.0450   89.9793    6.0063 C.ar    1  UNL1        0.0837
     12 C          57.9218   90.8455    5.5183 C.ar    1  UNL1        0.0174
     13 C          58.2008   91.9686    4.5641 C.ar    1  UNL1        0.0131
     14 C          59.6031   92.2257    4.0978 C.ar    1  UNL1        0.0875
     15 C          60.7264   91.3596    4.5857 C.ar    1  UNL1        0.1087
     16 N          60.4473   90.2364    5.5400 N.ar    1  UNL1       -0.2454
     17 C          59.8821   93.3489    3.1435 C.1     1  UNL1        0.1020
     18 N          60.1612   94.4721    2.1893 N.1     1  UNL1       -0.1908
     19 C          63.4957   83.8027    9.6015 C.3     1  UNL1        0.1117
     20 C          61.6319   81.1268   13.6470 C.3     1  UNL1        0.0342
     21 C          62.5086   82.2153   13.1023 C.ar    1  UNL1        0.0118
     22 C          62.5638   82.4648   11.6243 C.ar    1  UNL1       -0.0050
     23 C          63.4405   83.5532   11.0796 C.ar    1  UNL1       -0.0132
     24 C          64.2620   84.3922   12.0130 C.ar    1  UNL1       -0.0007
     25 C          64.2067   84.1428   13.4910 C.ar    1  UNL1        0.0363
     26 C          63.3301   83.0543   14.0357 C.ar    1  UNL1        0.1345
     27 O          63.2748   82.8049   15.5138 O.3     1  UNL1       -0.4755
     28 C          63.4497   83.9441   16.4737 C.3     1  UNL1        0.2142
     29 C          62.4930   85.0992   16.4491 C.3     1  UNL1        0.1504
     30 C          62.9274   86.4438   16.9523 C.3     1  UNL1        0.4014
     31 F          63.3619   87.7884   17.4555 F       1  UNL1       -0.1699
     32 F          63.8073   86.6098   15.7489 F       1  UNL1       -0.1699
     33 F          62.0476   86.2777   18.1557 F       1  UNL1       -0.1699
@<TRIPOS>BOND
     1    20    21    1
     2    21    22   ar
     3    22    23   ar
     4    23    19    1
     5    19     1    1
     6     1     2    2
     7     1     3   am
     8     3     5    1
     9     5     6   ar
    10     6     7   ar
    11     7     8   ar
    12     8    10    1
    13    10    11    1
    14    11    12   ar
    15    12    13   ar
    16    13    14   ar
    17    14    17    1
    18    17    18    3
    19    14    15   ar
    20    15    16   ar
    21     8     9   ar
    22    23    24   ar
    23    24    25   ar
    24    25    26   ar
    25    26    27    1
    26    27    28    1
    27    28    29    1
    28    29    30    1
    29    30    31    1
    30    30    32    1
    31    30    33    1
    32    26    21   ar
    33     9     5   ar
    34    16    11   ar
    35     3     4    1
