@<TRIPOS>MOLECULE
*****
 27 30 0 0 0
SMALL
GASTEIGER

@<TRIPOS>ATOM
      1 C          63.1353   89.7300   14.4459 C.3     1  UNL1        0.1363
      2 N          63.8944   90.6133   13.5007 N.ar    1  UNL1       -0.2667
      3 C          63.4533   90.7377   12.0725 C.ar    1  UNL1        0.2036
      4 N          64.2125   91.6211   11.1272 N.ar    1  UNL1       -0.2148
      5 C          65.4128   92.3800   11.6103 C.ar    1  UNL1        0.0890
      6 C          65.8539   92.2556   13.0385 C.ar    1  UNL1        0.0800
      7 C          65.0947   91.3723   13.9837 C.ar    1  UNL1        0.2645
      8 O          65.5359   91.2479   15.4120 O.2     1  UNL1       -0.2668
      9 N          62.2530   89.9788   11.5894 N.pl3   1  UNL1       -0.2740
     10 C          60.8927   90.3023   12.1323 C.3     1  UNL1        0.1257
     11 C          59.6924   89.5433   11.6492 C.3     1  UNL1        0.1640
     12 O          59.8525   88.4609   10.6232 O.3     1  UNL1       -0.3483
     13 C          61.2129   88.1374   10.0802 C.3     1  UNL1        0.1572
     14 C          62.4131   88.8964   10.5633 C.3     1  UNL1        0.1276
     15 C          61.3730   87.0550    9.0542 C.ar    1  UNL1        0.0064
     16 C          60.2264   86.6982    8.1552 C.ar    1  UNL1        0.0004
     17 C          60.3865   85.6158    7.1292 C.ar    1  UNL1        0.0294
     18 C          61.6932   84.8902    7.0021 C.ar    1  UNL1        0.1401
     19 F          61.8533   83.8078    5.9761 F       1  UNL1       -0.2042
     20 C          62.8397   85.2470    7.9011 C.ar    1  UNL1        0.0294
     21 C          62.6796   86.3294    8.9271 C.ar    1  UNL1        0.0004
     22 C          66.1719   93.2633   10.6650 C.ar    1  UNL1        0.0210
     23 C          67.3549   92.7216    9.9188 C.ar    1  UNL1        0.0222
     24 C          68.1141   93.6049    8.9735 C.ar    1  UNL1        0.0989
     25 N          67.6902   95.0299    8.7746 N.ar    1  UNL1       -0.2423
     26 C          66.5072   95.5716    9.5209 C.ar    1  UNL1        0.0989
     27 C          65.7481   94.6883   10.4661 C.ar    1  UNL1        0.0222
@<TRIPOS>BOND
     1     1     2    1
     2     2     3   ar
     3     3     9    1
     4     9    10    1
     5    10    11    1
     6    11    12    1
     7    12    13    1
     8    13    15    1
     9    15    16   ar
    10    16    17   ar
    11    17    18   ar
    12    18    19    1
    13    18    20   ar
    14    20    21   ar
    15    13    14    1
    16     3     4   ar
    17     4     5   ar
    18     5    22    1
    19    22    23   ar
    20    23    24   ar
    21    24    25   ar
    22    25    26   ar
    23    26    27   ar
    24     5     6   ar
    25     6     7   ar
    26     7     8    2
    27     7     2   ar
    28    14     9    1
    29    27    22   ar
    30    21    15   ar
@<TRIPOS>MOLECULE
*****
 27 30 0 0 0
SMALL
GASTEIGER

@<TRIPOS>ATOM
      1 C          63.3749   90.1029   15.0451 C.3     1  UNL1        0.1363
      2 N          64.0900   90.9344   14.0218 N.ar    1  UNL1       -0.2667
      3 C          63.7802   90.7603   12.5645 C.ar    1  UNL1        0.2036
      4 N          64.4953   91.5918   11.5412 N.ar    1  UNL1       -0.2148
      5 C          65.5202   92.5974   11.9751 C.ar    1  UNL1        0.0890
      6 C          65.8300   92.7715   13.4324 C.ar    1  UNL1        0.0800
      7 C          65.1149   91.9400   14.4557 C.ar    1  UNL1        0.2645
      8 O          65.4247   92.1141   15.9130 O.2     1  UNL1       -0.2668
      9 N          62.7553   89.7547   12.1305 N.pl3   1  UNL1       -0.2740
     10 C          61.3269   90.1724   11.9435 C.3     1  UNL1        0.1257
     11 C          60.3020   89.1668   11.5095 C.3     1  UNL1        0.1640
     12 O          60.7056   87.7434   11.2626 O.3     1  UNL1       -0.3483
     13 C          62.1341   87.3256   11.4496 C.3     1  UNL1        0.1572
     14 C          63.1589   88.3312   11.8836 C.3     1  UNL1        0.1276
     15 C          62.5376   85.9022   11.2027 C.ar    1  UNL1        0.0064
     16 C          62.8082   85.4311    9.8044 C.ar    1  UNL1        0.0004
     17 C          63.2118   84.0077    9.5575 C.ar    1  UNL1        0.0294
     18 C          63.3448   83.0553   10.7088 C.ar    1  UNL1        0.1401
     19 F          63.7484   81.6319   10.4619 F       1  UNL1       -0.2042
     20 C          63.0743   83.5264   12.1069 C.ar    1  UNL1        0.0294
     21 C          62.6707   84.9498   12.3539 C.ar    1  UNL1        0.0004
     22 C          66.2352   93.4290   10.9517 C.ar    1  UNL1        0.0210
     23 C          65.9009   94.8834   10.8005 C.ar    1  UNL1        0.0222
     24 C          66.6159   95.7149    9.7772 C.ar    1  UNL1        0.0989
     25 N          67.6654   95.0920    8.9051 N.ar    1  UNL1       -0.2423
     26 C          67.9998   93.6376    9.0563 C.ar    1  UNL1        0.0989
     27 C          67.2847   92.8061   10.0796 C.ar    1  UNL1        0.0222
@<TRIPOS>BOND
     1     1     2    1
     2     2     3   ar
     3     3     9    1
     4     9    10    1
     5    10    11    1
     6    11    12    1
     7    12    13    1
     8    13    15    1
     9    15    16   ar
    10    16    17   ar
    11    17    18   ar
    12    18    19    1
    13    18    20   ar
    14    20    21   ar
    15    13    14    1
    16     3     4   ar
    17     4     5   ar
    18     5    22    1
    19    22    23   ar
    20    23    24   ar
    21    24    25   ar
    22    25    26   ar
    23    26    27   ar
    24     5     6   ar
    25     6     7   ar
    26     7     8    2
    27     7     2   ar
    28    14     9    1
    29    27    22   ar
    30    21    15   ar
@<TRIPOS>MOLECULE
*****
 27 30 0 0 0
SMALL
GASTEIGER

@<TRIPOS>ATOM
      1 C          61.2510   90.4770   10.8032 C.3     1  UNL1        0.1363
      2 N          61.6448   89.0660   11.1260 N.ar    1  UNL1       -0.2667
      3 C          62.7921   88.8015   12.0553 C.ar    1  UNL1        0.2036
      4 N          63.1859   87.3906   12.3781 N.ar    1  UNL1       -0.2148
      5 C          62.4324   86.2442   11.7716 C.ar    1  UNL1        0.0890
      6 C          61.2851   86.5087   10.8423 C.ar    1  UNL1        0.0800
      7 C          60.8913   87.9196   10.5195 C.ar    1  UNL1        0.2645
      8 O          59.7439   88.1841    9.5901 O.2     1  UNL1       -0.2668
      9 N          63.5457   89.9480   12.6619 N.pl3   1  UNL1       -0.2740
     10 C          63.5377   90.1481   14.1484 C.3     1  UNL1        0.1257
     11 C          64.2912   91.2945   14.7550 C.3     1  UNL1        0.1640
     12 O          65.0528   92.2408   13.8749 O.3     1  UNL1       -0.3483
     13 C          65.0608   92.0407   12.3883 C.3     1  UNL1        0.1572
     14 C          64.3072   90.8943   11.7818 C.3     1  UNL1        0.1276
     15 C          65.8223   92.9870   11.5083 C.ar    1  UNL1        0.0064
     16 C          66.6246   92.4587   10.3561 C.ar    1  UNL1        0.0004
     17 C          67.3862   93.4051    9.4761 C.ar    1  UNL1        0.0294
     18 C          67.3454   94.8797    9.7481 C.ar    1  UNL1        0.1401
     19 F          68.1070   95.8260    8.8681 F       1  UNL1       -0.2042
     20 C          66.5432   95.4079   10.9002 C.ar    1  UNL1        0.0294
     21 C          65.7816   94.4616   11.7803 C.ar    1  UNL1        0.0004
     22 C          62.8262   84.8333   12.0944 C.ar    1  UNL1        0.0210
     23 C          63.2642   83.9075   10.9986 C.ar    1  UNL1        0.0222
     24 C          63.6580   82.4965   11.3214 C.ar    1  UNL1        0.0989
     25 N          63.6138   82.0114   12.7400 N.ar    1  UNL1       -0.2423
     26 C          63.1757   82.9372   13.8359 C.ar    1  UNL1        0.0989
     27 C          62.7819   84.3481   13.5131 C.ar    1  UNL1        0.0222
@<TRIPOS>BOND
     1     1     2    1
     2     2     3   ar
     3     3     9    1
     4     9    10    1
     5    10    11    1
     6    11    12    1
     7    12    13    1
     8    13    15    1
     9    15    16   ar
    10    16    17   ar
    11    17    18   ar
    12    18    19    1
    13    18    20   ar
    14    20    21   ar
    15    13    14    1
    16     3     4   ar
    17     4     5   ar
    18     5    22    1
    19    22    23   ar
    20    23    24   ar
    21    24    25   ar
    22    25    26   ar
    23    26    27   ar
    24     5     6   ar
    25     6     7   ar
    26     7     8    2
    27     7     2   ar
    28    14     9    1
    29    27    22   ar
    30    21    15   ar
@<TRIPOS>MOLECULE
*****
 27 30 0 0 0
SMALL
GASTEIGER

@<TRIPOS>ATOM
      1 C          63.1509   88.8196   16.9925 C.3     1  UNL1        0.1363
      2 N          63.2049   87.5317   16.2254 N.ar    1  UNL1       -0.2667
      3 C          63.6224   87.5338   14.7848 C.ar    1  UNL1        0.2036
      4 N          63.6764   86.2459   14.0177 N.ar    1  UNL1       -0.2148
      5 C          63.3128   84.9559   14.6913 C.ar    1  UNL1        0.0890
      6 C          62.8952   84.9539   16.1319 C.ar    1  UNL1        0.0800
      7 C          62.8412   86.2418   16.8990 C.ar    1  UNL1        0.2645
      8 O          62.4236   86.2397   18.3398 O.2     1  UNL1       -0.2668
      9 N          63.9861   88.8238   14.1111 N.pl3   1  UNL1       -0.2740
     10 C          63.2200   89.2824   12.9059 C.3     1  UNL1        0.1257
     11 C          63.5837   90.5724   12.2322 C.3     1  UNL1        0.1640
     12 O          64.7135   91.4037   12.7638 O.3     1  UNL1       -0.3483
     13 C          65.4796   90.9449   13.9691 C.3     1  UNL1        0.1572
     14 C          65.1159   89.6550   14.6427 C.3     1  UNL1        0.1276
     15 C          66.6093   91.7762   14.5008 C.ar    1  UNL1        0.0064
     16 C          67.9249   91.8022   13.7805 C.ar    1  UNL1        0.0004
     17 C          69.0547   92.6335   14.3121 C.ar    1  UNL1        0.0294
     18 C          68.8689   93.4386   15.5641 C.ar    1  UNL1        0.1401
     19 F          69.9987   94.2699   16.0957 F       1  UNL1       -0.2042
     20 C          67.5534   93.4125   16.2843 C.ar    1  UNL1        0.0294
     21 C          66.4236   92.5813   15.7527 C.ar    1  UNL1        0.0004
     22 C          63.3667   83.6680   13.9242 C.ar    1  UNL1        0.0210
     23 C          64.1922   83.5729   12.6754 C.ar    1  UNL1        0.0222
     24 C          64.2461   82.2850   11.9083 C.ar    1  UNL1        0.0989
     25 N          63.4746   81.0922   12.3900 N.ar    1  UNL1       -0.2423
     26 C          62.6491   81.1874   13.6388 C.ar    1  UNL1        0.0989
     27 C          62.5952   82.4753   14.4059 C.ar    1  UNL1        0.0222
@<TRIPOS>BOND
     1     1     2    1
     2     2     3   ar
     3     3     9    1
     4     9    10    1
     5    10    11    1
     6    11    12    1
     7    12    13    1
     8    13    15    1
     9    15    16   ar
    10    16    17   ar
    11    17    18   ar
    12    18    19    1
    13    18    20   ar
    14    20    21   ar
    15    13    14    1
    16     3     4   ar
    17     4     5   ar
    18     5    22    1
    19    22    23   ar
    20    23    24   ar
    21    24    25   ar
    22    25    26   ar
    23    26    27   ar
    24     5     6   ar
    25     6     7   ar
    26     7     8    2
    27     7     2   ar
    28    14     9    1
    29    27    22   ar
    30    21    15   ar
@<TRIPOS>MOLECULE
*****
 27 30 0 0 0
SMALL
GASTEIGER

@<TRIPOS>ATOM
      1 C          61.8593   87.1395   11.3892 C.3     1  UNL1        0.1363
      2 N          62.6897   88.2785   11.9022 N.ar    1  UNL1       -0.2667
      3 C          63.6037   88.0724   13.0735 C.ar    1  UNL1        0.2036
      4 N          64.4340   89.2114   13.5865 N.ar    1  UNL1       -0.2148
      5 C          64.3505   90.5565   12.9281 C.ar    1  UNL1        0.0890
      6 C          63.4365   90.7627   11.7567 C.ar    1  UNL1        0.0800
      7 C          62.6061   89.6237   11.2438 C.ar    1  UNL1        0.2645
      8 O          61.6921   89.8299   10.0724 O.2     1  UNL1       -0.2668
      9 N          63.6873   86.7272   13.7320 N.pl3   1  UNL1       -0.2740
     10 C          63.9809   86.6275   15.1996 C.3     1  UNL1        0.1257
     11 C          64.0645   85.2823   15.8581 C.3     1  UNL1        0.1640
     12 O          63.8545   84.0368   15.0489 O.3     1  UNL1       -0.3483
     13 C          63.5609   84.1366   13.5812 C.3     1  UNL1        0.1572
     14 C          63.4773   85.4817   12.9228 C.3     1  UNL1        0.1276
     15 C          63.3509   82.8911   12.7720 C.ar    1  UNL1        0.0064
     16 C          63.6494   82.8926   11.3020 C.ar    1  UNL1        0.0004
     17 C          63.4394   81.6472   10.4928 C.ar    1  UNL1        0.0294
     18 C          62.9309   80.4002   11.1537 C.ar    1  UNL1        0.1401
     19 F          62.7210   79.1548   10.3445 F       1  UNL1       -0.2042
     20 C          62.6325   80.3988   12.6237 C.ar    1  UNL1        0.0294
     21 C          62.8425   81.6442   13.4328 C.ar    1  UNL1        0.0004
     22 C          65.1808   91.6956   13.4411 C.ar    1  UNL1        0.0210
     23 C          65.5755   92.8108   12.5189 C.ar    1  UNL1        0.0222
     24 C          66.4058   93.9498   13.0319 C.ar    1  UNL1        0.0989
     25 N          66.8416   93.9736   14.4670 N.ar    1  UNL1       -0.2423
     26 C          66.4469   92.8583   15.3891 C.ar    1  UNL1        0.0989
     27 C          65.6166   91.7193   14.8761 C.ar    1  UNL1        0.0222
@<TRIPOS>BOND
     1     1     2    1
     2     2     3   ar
     3     3     9    1
     4     9    10    1
     5    10    11    1
     6    11    12    1
     7    12    13    1
     8    13    15    1
     9    15    16   ar
    10    16    17   ar
    11    17    18   ar
    12    18    19    1
    13    18    20   ar
    14    20    21   ar
    15    13    14    1
    16     3     4   ar
    17     4     5   ar
    18     5    22    1
    19    22    23   ar
    20    23    24   ar
    21    24    25   ar
    22    25    26   ar
    23    26    27   ar
    24     5     6   ar
    25     6     7   ar
    26     7     8    2
    27     7     2   ar
    28    14     9    1
    29    27    22   ar
    30    21    15   ar
@<TRIPOS>MOLECULE
*****
 27 30 0 0 0
SMALL
GASTEIGER

@<TRIPOS>ATOM
      1 C          64.5662   87.4029   14.5766 C.3     1  UNL1        0.1363
      2 N          63.6886   87.4415   13.3608 N.ar    1  UNL1       -0.2667
      3 C          63.4419   88.7417   12.6548 C.ar    1  UNL1        0.2036
      4 N          62.5643   88.7802   11.4389 N.ar    1  UNL1       -0.2148
      5 C          61.9333   87.5186   10.9291 C.ar    1  UNL1        0.0890
      6 C          62.1799   86.2183   11.6351 C.ar    1  UNL1        0.0800
      7 C          63.0576   86.1798   12.8510 C.ar    1  UNL1        0.2645
      8 O          63.3042   84.8795   13.5570 O.2     1  UNL1       -0.2668
      9 N          64.0729   90.0035   13.1646 N.pl3   1  UNL1       -0.2740
     10 C          64.0712   90.3020   14.6345 C.3     1  UNL1        0.1257
     11 C          64.7022   91.5638   15.1443 C.3     1  UNL1        0.1640
     12 O          65.3349   92.5270   14.1841 O.3     1  UNL1       -0.3483
     13 C          65.3366   92.2284   12.7141 C.3     1  UNL1        0.1572
     14 C          64.7056   90.9666   12.2043 C.3     1  UNL1        0.1276
     15 C          65.9693   93.1915   11.7538 C.ar    1  UNL1        0.0064
     16 C          66.5904   92.6867   10.4852 C.ar    1  UNL1        0.0004
     17 C          67.2231   93.6499    9.5249 C.ar    1  UNL1        0.0294
     18 C          67.2346   95.1179    9.8334 C.ar    1  UNL1        0.1401
     19 F          67.8673   96.0810    8.8732 F       1  UNL1       -0.2042
     20 C          66.6135   95.6226   11.1020 C.ar    1  UNL1        0.0294
     21 C          65.9808   94.6594   12.0622 C.ar    1  UNL1        0.0004
     22 C          61.0556   87.5571    9.7133 C.ar    1  UNL1        0.0210
     23 C          60.5691   88.8723    9.1809 C.ar    1  UNL1        0.0222
     24 C          59.6915   88.9108    7.9650 C.ar    1  UNL1        0.0989
     25 N          59.3003   87.6342    7.2816 N.ar    1  UNL1       -0.2423
     26 C          59.7868   86.3190    7.8140 C.ar    1  UNL1        0.0989
     27 C          60.6645   86.2804    9.0299 C.ar    1  UNL1        0.0222
@<TRIPOS>BOND
     1     1     2    1
     2     2     3   ar
     3     3     9    1
     4     9    10    1
     5    10    11    1
     6    11    12    1
     7    12    13    1
     8    13    15    1
     9    15    16   ar
    10    16    17   ar
    11    17    18   ar
    12    18    19    1
    13    18    20   ar
    14    20    21   ar
    15    13    14    1
    16     3     4   ar
    17     4     5   ar
    18     5    22    1
    19    22    23   ar
    20    23    24   ar
    21    24    25   ar
    22    25    26   ar
    23    26    27   ar
    24     5     6   ar
    25     6     7   ar
    26     7     8    2
    27     7     2   ar
    28    14     9    1
    29    27    22   ar
    30    21    15   ar
@<TRIPOS>MOLECULE
*****
 27 30 0 0 0
SMALL
GASTEIGER

@<TRIPOS>ATOM
      1 C          64.6102   86.3727   15.0585 C.3     1  UNL1        0.1363
      2 N          63.8641   86.3137   13.7585 N.ar    1  UNL1       -0.2667
      3 C          63.4498   87.5820   13.0733 C.ar    1  UNL1        0.2036
      4 N          62.7037   87.5230   11.7734 N.ar    1  UNL1       -0.2148
      5 C          62.3718   86.1956   11.1587 C.ar    1  UNL1        0.0890
      6 C          62.7861   84.9273   11.8439 C.ar    1  UNL1        0.0800
      7 C          63.5322   84.9863   13.1438 C.ar    1  UNL1        0.2645
      8 O          63.9465   83.7178   13.8291 O.2     1  UNL1       -0.2668
      9 N          63.7816   88.9095   13.6880 N.pl3   1  UNL1       -0.2740
     10 C          63.5375   89.1412   15.1497 C.3     1  UNL1        0.1257
     11 C          63.8694   90.4686   15.7644 C.3     1  UNL1        0.1640
     12 O          64.4453   91.5644   14.9173 O.3     1  UNL1       -0.3483
     13 C          64.6894   91.3327   13.4555 C.3     1  UNL1        0.1572
     14 C          64.3575   90.0053   12.8409 C.3     1  UNL1        0.1276
     15 C          65.2653   92.4285   12.6084 C.ar    1  UNL1        0.0064
     16 C          66.0171   93.5565   13.2506 C.ar    1  UNL1        0.0004
     17 C          66.5930   94.6523   12.4035 C.ar    1  UNL1        0.0294
     18 C          66.4171   94.6200   10.9141 C.ar    1  UNL1        0.1401
     19 F          66.9931   95.7158   10.0670 F       1  UNL1       -0.2042
     20 C          65.6653   93.4920   10.2720 C.ar    1  UNL1        0.0294
     21 C          65.0894   92.3962   11.1191 C.ar    1  UNL1        0.0004
     22 C          61.6257   86.1366    9.8587 C.ar    1  UNL1        0.0210
     23 C          60.2902   86.8071    9.7294 C.ar    1  UNL1        0.0222
     24 C          59.5441   86.7480    8.4295 C.ar    1  UNL1        0.0989
     25 N          60.1335   86.0185    7.2589 N.ar    1  UNL1       -0.2423
     26 C          61.4690   85.3481    7.3882 C.ar    1  UNL1        0.0989
     27 C          62.2151   85.4071    8.6881 C.ar    1  UNL1        0.0222
@<TRIPOS>BOND
     1     1     2    1
     2     2     3   ar
     3     3     9    1
     4     9    10    1
     5    10    11    1
     6    11    12    1
     7    12    13    1
     8    13    15    1
     9    15    16   ar
    10    16    17   ar
    11    17    18   ar
    12    18    19    1
    13    18    20   ar
    14    20    21   ar
    15    13    14    1
    16     3     4   ar
    17     4     5   ar
    18     5    22    1
    19    22    23   ar
    20    23    24   ar
    21    24    25   ar
    22    25    26   ar
    23    26    27   ar
    24     5     6   ar
    25     6     7   ar
    26     7     8    2
    27     7     2   ar
    28    14     9    1
    29    27    22   ar
    30    21    15   ar
@<TRIPOS>MOLECULE
*****
 27 30 0 0 0
SMALL
GASTEIGER

@<TRIPOS>ATOM
      1 C          62.9057   89.4999   14.9174 C.3     1  UNL1        0.1363
      2 N          63.7058   90.3611   13.9857 N.ar    1  UNL1       -0.2667
      3 C          63.6894   90.0873   12.5110 C.ar    1  UNL1        0.2036
      4 N          64.4895   90.9485   11.5793 N.ar    1  UNL1       -0.2148
      5 C          65.3062   92.0834   12.1222 C.ar    1  UNL1        0.0890
      6 C          65.3226   92.3573   13.5969 C.ar    1  UNL1        0.0800
      7 C          64.5225   91.4961   14.5286 C.ar    1  UNL1        0.2645
      8 O          64.5390   91.7700   16.0034 O.2     1  UNL1       -0.2668
      9 N          62.8727   88.9522   11.9680 N.pl3   1  UNL1       -0.2740
     10 C          61.7205   89.2299   11.0486 C.3     1  UNL1        0.1257
     11 C          60.9038   88.0949   10.5056 C.3     1  UNL1        0.1640
     12 O          61.2394   86.6822   10.8820 O.3     1  UNL1       -0.3483
     13 C          62.3917   86.4045   11.8014 C.3     1  UNL1        0.1572
     14 C          63.2083   87.5395   12.3444 C.3     1  UNL1        0.1276
     15 C          62.7273   84.9918   12.1778 C.ar    1  UNL1        0.0064
     16 C          63.2452   84.6846   13.5517 C.ar    1  UNL1        0.0004
     17 C          63.5808   83.2719   13.9281 C.ar    1  UNL1        0.0294
     18 C          63.3985   82.1665   12.9306 C.ar    1  UNL1        0.1401
     19 F          63.7341   80.7538   13.3070 F       1  UNL1       -0.2042
     20 C          62.8807   82.4738   11.5568 C.ar    1  UNL1        0.0294
     21 C          62.5451   83.8864   11.1804 C.ar    1  UNL1        0.0004
     22 C          66.1063   92.9446   11.1905 C.ar    1  UNL1        0.0210
     23 C          67.3624   92.4107   10.5683 C.ar    1  UNL1        0.0222
     24 C          68.1626   93.2719    9.6366 C.ar    1  UNL1        0.0989
     25 N          67.7067   94.6670    9.3271 N.ar    1  UNL1       -0.2423
     26 C          66.4506   95.2009    9.9493 C.ar    1  UNL1        0.0989
     27 C          65.6504   94.3397   10.8810 C.ar    1  UNL1        0.0222
@<TRIPOS>BOND
     1     1     2    1
     2     2     3   ar
     3     3     9    1
     4     9    10    1
     5    10    11    1
     6    11    12    1
     7    12    13    1
     8    13    15    1
     9    15    16   ar
    10    16    17   ar
    11    17    18   ar
    12    18    19    1
    13    18    20   ar
    14    20    21   ar
    15    13    14    1
    16     3     4   ar
    17     4     5   ar
    18     5    22    1
    19    22    23   ar
    20    23    24   ar
    21    24    25   ar
    22    25    26   ar
    23    26    27   ar
    24     5     6   ar
    25     6     7   ar
    26     7     8    2
    27     7     2   ar
    28    14     9    1
    29    27    22   ar
    30    21    15   ar
@<TRIPOS>MOLECULE
*****
 27 30 0 0 0
SMALL
GASTEIGER

@<TRIPOS>ATOM
      1 C          64.3545   85.6183   15.5708 C.3     1  UNL1        0.1363
      2 N          63.8202   85.6129   14.1692 N.ar    1  UNL1       -0.2667
      3 C          63.4978   86.9079   13.4845 C.ar    1  UNL1        0.2036
      4 N          62.9635   86.9024   12.0828 N.ar    1  UNL1       -0.2148
      5 C          62.7518   85.6020   11.3660 C.ar    1  UNL1        0.0890
      6 C          63.0742   84.3070   12.0507 C.ar    1  UNL1        0.0800
      7 C          63.6085   84.3124   13.4523 C.ar    1  UNL1        0.2645
      8 O          63.9309   83.0173   14.1371 O.2     1  UNL1       -0.2668
      9 N          63.7096   88.2084   14.2013 N.pl3   1  UNL1       -0.2740
     10 C          63.3228   88.3409   15.6445 C.3     1  UNL1        0.1257
     11 C          63.5346   89.6415   16.3614 C.3     1  UNL1        0.1640
     12 O          64.1331   90.8094   15.6350 O.3     1  UNL1       -0.3483
     13 C          64.5199   90.6768   14.1918 C.3     1  UNL1        0.1572
     14 C          64.3081   89.3764   13.4750 C.3     1  UNL1        0.1276
     15 C          65.1184   91.8448   13.4654 C.ar    1  UNL1        0.0064
     16 C          64.8527   92.0335   12.0011 C.ar    1  UNL1        0.0004
     17 C          65.4513   93.2015   11.2748 C.ar    1  UNL1        0.0294
     18 C          66.3155   94.1807   12.0126 C.ar    1  UNL1        0.1401
     19 F          66.9140   95.3487   11.2862 F       1  UNL1       -0.2042
     20 C          66.5811   93.9920   13.4767 C.ar    1  UNL1        0.0294
     21 C          65.9826   92.8240   14.2031 C.ar    1  UNL1        0.0004
     22 C          62.2175   85.5966    9.9643 C.ar    1  UNL1        0.0210
     23 C          63.0317   85.0020    8.8537 C.ar    1  UNL1        0.0222
     24 C          62.4974   84.9966    7.4520 C.ar    1  UNL1        0.0989
     25 N          61.1490   85.5857    7.1611 N.ar    1  UNL1       -0.2423
     26 C          60.3349   86.1802    8.2717 C.ar    1  UNL1        0.0989
     27 C          60.8691   86.1856    9.6734 C.ar    1  UNL1        0.0222
@<TRIPOS>BOND
     1     1     2    1
     2     2     3   ar
     3     3     9    1
     4     9    10    1
     5    10    11    1
     6    11    12    1
     7    12    13    1
     8    13    15    1
     9    15    16   ar
    10    16    17   ar
    11    17    18   ar
    12    18    19    1
    13    18    20   ar
    14    20    21   ar
    15    13    14    1
    16     3     4   ar
    17     4     5   ar
    18     5    22    1
    19    22    23   ar
    20    23    24   ar
    21    24    25   ar
    22    25    26   ar
    23    26    27   ar
    24     5     6   ar
    25     6     7   ar
    26     7     8    2
    27     7     2   ar
    28    14     9    1
    29    27    22   ar
    30    21    15   ar
