@<TRIPOS>MOLECULE
*****
 29 32 0 0 0
SMALL
GASTEIGER

@<TRIPOS>ATOM
      1 N          64.1853   91.2223   12.3388 N.am    1  UNL1       -0.2723
      2 C          65.1939   92.3217   12.4942 C.2     1  UNL1        0.2685
      3 O          65.4078   93.3060   11.3827 O.2     1  UNL1       -0.2682
      4 C          63.9715   90.2381   13.4503 C.3     1  UNL1        0.0761
      5 C          64.2784   88.7706   13.3998 C.3     1  UNL1        0.0213
      6 C          63.9098   88.1740   14.7257 C.3     1  UNL1        0.0188
      7 C          63.8717   86.8984   15.5140 C.3     1  UNL1        0.0686
      8 N          63.3134   87.2087   16.8711 N.3     1  UNL1       -0.2975
      9 C          63.0064   88.6761   16.9217 C.3     1  UNL1        0.0686
     10 C          63.3750   89.2727   15.5958 C.3     1  UNL1        0.0188
     11 C          63.4131   90.5483   14.8075 C.3     1  UNL1        0.0213
     12 H          63.9984   86.9734   17.5893 H       1  UNL1        0.1232
     13 C          65.9887   92.4367   13.7611 C.ar    1  UNL1        0.1535
     14 C          67.4694   92.2368   13.8943 C.ar    1  UNL1        0.1012
     15 N          67.8381   92.4484   15.3327 N.ar    1  UNL1       -0.3057
     16 C          69.2174   92.3471   15.9134 C.3     1  UNL1        0.1321
     17 C          66.5854   92.7791   16.0886 C.ar    1  UNL1        0.1787
     18 N          65.4424   92.7718   15.1173 N.ar    1  UNL1       -0.2192
     19 C          63.3905   91.1073   11.0718 C.3     1  UNL1        0.1205
     20 C          61.1579   87.9919   10.0425 C.ar    1  UNL1        0.1381
     21 C          59.9181   88.2541   10.8450 C.ar    1  UNL1        0.0369
     22 C          59.8358   89.4674   11.7232 C.ar    1  UNL1        0.0028
     23 C          60.9932   90.4185   11.7988 C.ar    1  UNL1       -0.0024
     24 C          62.2331   90.1563   10.9963 C.ar    1  UNL1        0.0007
     25 C          62.3154   88.9429   10.1181 C.ar    1  UNL1        0.0343
     26 O          61.2402   86.7786    9.1644 O.3     1  UNL1       -0.4792
     27 C          62.4506   85.1940   10.8299 C.3     1  UNL1        0.0472
     28 C          62.2704   85.7233    9.4379 C.3     1  UNL1        0.1661
     29 C          63.1204   85.1971    8.3196 C.3     1  UNL1        0.0472
@<TRIPOS>BOND
     1    27    28    1
     2    28    29    1
     3    28    26    1
     4    26    20    1
     5    20    21   ar
     6    21    22   ar
     7    22    23   ar
     8    23    24   ar
     9    24    19    1
    10    19     1    1
    11     1     2   am
    12     2     3    2
    13     2    13    1
    14    13    14   ar
    15    14    15   ar
    16    15    16    1
    17    15    17   ar
    18    17    18   ar
    19     4     1    1
    20     4     5    1
    21     6     5    1
    22     6     7    1
    23     7     8    1
    24     8     9    1
    25    10     9    1
    26    10    11    1
    27    24    25   ar
    28    25    20   ar
    29    18    13   ar
    30    11     4    1
    31    10     6    1
    32     8    12    1
@<TRIPOS>MOLECULE
*****
 29 32 0 0 0
SMALL
GASTEIGER

@<TRIPOS>ATOM
      1 N          64.6316   91.6439   12.6303 N.am    1  UNL1       -0.2723
      2 C          64.6423   92.0096   11.1756 C.2     1  UNL1        0.2685
      3 O          63.5145   91.5787   10.2854 O.2     1  UNL1       -0.2682
      4 C          65.7593   92.0748   13.5203 C.3     1  UNL1        0.0761
      5 C          66.1768   93.4897   13.7922 C.3     1  UNL1        0.0213
      6 C          67.3432   93.4559   14.7347 C.3     1  UNL1        0.0188
      7 C          68.3221   94.3094   15.4852 C.3     1  UNL1        0.0686
      8 N          69.2305   93.4012   16.2597 N.3     1  UNL1       -0.2975
      9 C          68.8130   91.9863   15.9879 C.3     1  UNL1        0.0686
     10 C          67.6466   92.0201   15.0454 C.3     1  UNL1        0.0188
     11 C          66.6678   91.1665   14.2949 C.3     1  UNL1        0.0213
     12 H          69.1507   93.6001   17.2570 H       1  UNL1        0.1232
     13 C          65.7809   92.8063   10.6110 C.ar    1  UNL1        0.1535
     14 C          65.7627   94.2743   10.3032 C.ar    1  UNL1        0.1012
     15 N          67.1082   94.6502    9.7570 N.ar    1  UNL1       -0.3057
     16 C          67.5298   96.0210    9.3177 C.3     1  UNL1        0.1321
     17 C          67.9580   93.4145    9.7273 C.ar    1  UNL1        0.1787
     18 N          67.1377   92.2750   10.2550 N.ar    1  UNL1       -0.2192
     19 C          63.4929   90.8471   13.1948 C.3     1  UNL1        0.1205
     20 C          63.2152   86.9451   12.5264 C.ar    1  UNL1        0.1381
     21 C          63.9102   86.3997   13.7386 C.ar    1  UNL1        0.0369
     22 C          64.4661   87.3368   14.7695 C.ar    1  UNL1        0.0028
     23 C          64.3270   88.8193   14.5883 C.ar    1  UNL1       -0.0024
     24 C          63.6320   89.3647   13.3761 C.ar    1  UNL1        0.0007
     25 C          63.0760   88.4276   12.3451 C.ar    1  UNL1        0.0343
     26 O          62.6593   86.0080   11.4955 O.3     1  UNL1       -0.4792
     27 C          60.5614   87.2403   10.5844 C.3     1  UNL1        0.0472
     28 C          61.8691   86.5471   10.3403 C.3     1  UNL1        0.1661
     29 C          62.3865   86.3932    8.9407 C.3     1  UNL1        0.0472
@<TRIPOS>BOND
     1    27    28    1
     2    28    29    1
     3    28    26    1
     4    26    20    1
     5    20    21   ar
     6    21    22   ar
     7    22    23   ar
     8    23    24   ar
     9    24    19    1
    10    19     1    1
    11     1     2   am
    12     2     3    2
    13     2    13    1
    14    13    14   ar
    15    14    15   ar
    16    15    16    1
    17    15    17   ar
    18    17    18   ar
    19     4     1    1
    20     4     5    1
    21     6     5    1
    22     6     7    1
    23     7     8    1
    24     8     9    1
    25    10     9    1
    26    10    11    1
    27    24    25   ar
    28    25    20   ar
    29    18    13   ar
    30    11     4    1
    31    10     6    1
    32     8    12    1
@<TRIPOS>MOLECULE
*****
 29 32 0 0 0
SMALL
GASTEIGER

@<TRIPOS>ATOM
      1 N          64.0045   90.5274   14.2507 N.am    1  UNL1       -0.2723
      2 C          65.1780   91.4488   14.0957 C.2     1  UNL1        0.2685
      3 O          65.9481   91.8924   15.3041 O.2     1  UNL1       -0.2682
      4 C          63.2345   90.0838   13.0423 C.3     1  UNL1        0.0761
      5 C          63.4832   88.8364   12.2472 C.3     1  UNL1        0.0213
      6 C          62.4829   88.7914   11.1303 C.3     1  UNL1        0.0188
      7 C          62.0185   87.9927    9.9487 C.3     1  UNL1        0.0686
      8 N          60.8645   88.7187    9.3232 N.3     1  UNL1       -0.2975
      9 C          60.6158   89.9662   10.1182 C.3     1  UNL1        0.0686
     10 C          61.6161   90.0111   11.2351 C.3     1  UNL1        0.0188
     11 C          62.0805   90.8099   12.4167 C.3     1  UNL1        0.0213
     12 H          60.0339   88.1270    9.3387 H       1  UNL1        0.1232
     13 C          65.5814   91.9266   12.7323 C.ar    1  UNL1        0.1535
     14 C          66.9672   91.8900   12.1594 C.ar    1  UNL1        0.1012
     15 N          66.9121   92.4658   10.7755 N.ar    1  UNL1       -0.3057
     16 C          68.0730   92.6217    9.8385 C.3     1  UNL1        0.1321
     17 C          65.4922   92.8583   10.4929 C.ar    1  UNL1        0.1787
     18 N          64.6698   92.5251   11.7023 N.ar    1  UNL1       -0.2192
     19 C          63.6012   90.0495   15.6142 C.3     1  UNL1        0.1205
     20 C          64.2117   86.1421   15.2841 C.ar    1  UNL1        0.1381
     21 C          63.5327   85.6433   16.5251 C.ar    1  UNL1        0.0369
     22 C          62.8766   86.6132   17.4625 C.ar    1  UNL1        0.0028
     23 C          62.8994   88.0820   17.1589 C.ar    1  UNL1       -0.0024
     24 C          63.5784   88.5808   15.9178 C.ar    1  UNL1        0.0007
     25 C          64.2345   87.6108   14.9804 C.ar    1  UNL1        0.0343
     26 O          64.8678   85.1721   14.3467 O.3     1  UNL1       -0.4792
     27 C          63.0019   85.1277   12.5394 C.3     1  UNL1        0.0472
     28 C          64.0400   84.4128   13.3528 C.3     1  UNL1        0.1661
     29 C          64.2501   82.9386   13.1720 C.3     1  UNL1        0.0472
@<TRIPOS>BOND
     1    27    28    1
     2    28    29    1
     3    28    26    1
     4    26    20    1
     5    20    21   ar
     6    21    22   ar
     7    22    23   ar
     8    23    24   ar
     9    24    19    1
    10    19     1    1
    11     1     2   am
    12     2     3    2
    13     2    13    1
    14    13    14   ar
    15    14    15   ar
    16    15    16    1
    17    15    17   ar
    18    17    18   ar
    19     4     1    1
    20     4     5    1
    21     6     5    1
    22     6     7    1
    23     7     8    1
    24     8     9    1
    25    10     9    1
    26    10    11    1
    27    24    25   ar
    28    25    20   ar
    29    18    13   ar
    30    11     4    1
    31    10     6    1
    32     8    12    1
@<TRIPOS>MOLECULE
*****
 29 32 0 0 0
SMALL
GASTEIGER

@<TRIPOS>ATOM
      1 N          64.5343   91.7116   12.5198 N.am    1  UNL1       -0.2723
      2 C          64.5792   92.1155   11.0759 C.2     1  UNL1        0.2685
      3 O          63.4564   91.7371   10.1559 O.2     1  UNL1       -0.2682
      4 C          65.6570   92.0900   13.4397 C.3     1  UNL1        0.0761
      5 C          66.4413   91.1503   14.3068 C.3     1  UNL1        0.0213
      6 C          67.4616   91.9541   15.0570 C.3     1  UNL1        0.0188
      7 C          68.5769   91.8700   16.0566 C.3     1  UNL1        0.0686
      8 N          69.1124   93.2547   16.2710 N.3     1  UNL1       -0.2975
      9 C          68.3281   94.1945   15.4039 C.3     1  UNL1        0.0686
     10 C          67.3079   93.3906   14.6537 C.3     1  UNL1        0.0188
     11 C          66.1926   93.4747   13.6541 C.3     1  UNL1        0.0213
     12 H          70.0989   93.2880   16.0136 H       1  UNL1        0.1232
     13 C          65.7468   92.8979   10.5520 C.ar    1  UNL1        0.1535
     14 C          65.7591   94.3669   10.2488 C.ar    1  UNL1        0.1012
     15 N          67.1270   94.7256    9.7486 N.ar    1  UNL1       -0.3057
     16 C          67.5819   96.0917    9.3282 C.3     1  UNL1        0.1321
     17 C          67.9601   93.4782    9.7427 C.ar    1  UNL1        0.1787
     18 N          67.1071   92.3487   10.2392 N.ar    1  UNL1       -0.2192
     19 C          63.3666   90.9292   13.0438 C.3     1  UNL1        0.1205
     20 C          63.9160   87.0605   13.7375 C.ar    1  UNL1        0.1381
     21 C          63.2444   86.4593   12.5385 C.ar    1  UNL1        0.0369
     22 C          62.6136   87.3482   11.5080 C.ar    1  UNL1        0.0028
     23 C          62.6543   88.8381   11.6763 C.ar    1  UNL1       -0.0024
     24 C          63.3259   89.4393   12.8753 C.ar    1  UNL1        0.0007
     25 C          63.9568   88.5504   13.9059 C.ar    1  UNL1        0.0343
     26 O          64.5468   86.1716   14.7680 O.3     1  UNL1       -0.4792
     27 C          63.1881   86.0182   16.9771 C.3     1  UNL1        0.0472
     28 C          63.6839   85.3861   15.7103 C.3     1  UNL1        0.1661
     29 C          63.3167   83.9682   15.3860 C.3     1  UNL1        0.0472
@<TRIPOS>BOND
     1    27    28    1
     2    28    29    1
     3    28    26    1
     4    26    20    1
     5    20    21   ar
     6    21    22   ar
     7    22    23   ar
     8    23    24   ar
     9    24    19    1
    10    19     1    1
    11     1     2   am
    12     2     3    2
    13     2    13    1
    14    13    14   ar
    15    14    15   ar
    16    15    16    1
    17    15    17   ar
    18    17    18   ar
    19     4     1    1
    20     4     5    1
    21     6     5    1
    22     6     7    1
    23     7     8    1
    24     8     9    1
    25    10     9    1
    26    10    11    1
    27    24    25   ar
    28    25    20   ar
    29    18    13   ar
    30    11     4    1
    31    10     6    1
    32     8    12    1
@<TRIPOS>MOLECULE
*****
 29 32 0 0 0
SMALL
GASTEIGER

@<TRIPOS>ATOM
      1 N          64.1827   84.5680   13.9004 N.am    1  UNL1       -0.2723
      2 C          63.9860   83.2595   14.6068 C.2     1  UNL1        0.2685
      3 O          64.5815   83.0442   15.9666 O.2     1  UNL1       -0.2682
      4 C          63.5871   84.7833   12.5407 C.3     1  UNL1        0.0761
      5 C          64.0963   84.2053   11.2535 C.3     1  UNL1        0.0213
      6 C          63.2017   84.6791   10.1467 C.3     1  UNL1        0.0188
      7 C          62.9635   84.6148    8.6671 C.3     1  UNL1        0.0686
      8 N          61.7542   85.4457    8.3558 N.3     1  UNL1       -0.2975
      9 C          61.2449   86.0237    9.6429 C.3     1  UNL1        0.0686
     10 C          62.1395   85.5499   10.7498 C.3     1  UNL1        0.0188
     11 C          62.3777   85.6143   12.2293 C.3     1  UNL1        0.0213
     12 H          61.0340   84.8627    7.9293 H       1  UNL1        0.1232
     13 C          63.1937   82.1661   13.9534 C.ar    1  UNL1        0.1535
     14 C          63.6821   81.2493   12.8714 C.ar    1  UNL1        0.1012
     15 N          62.5642   80.3142   12.5166 N.ar    1  UNL1       -0.3057
     16 C          62.6164   79.2304   11.4808 C.3     1  UNL1        0.1321
     17 C          61.3849   80.6531   13.3793 C.ar    1  UNL1        0.1787
     18 N          61.7740   81.7977   14.2673 N.ar    1  UNL1       -0.2192
     19 C          64.9750   85.6614   14.5539 C.3     1  UNL1        0.1205
     20 C          63.5802   89.2455   15.5330 C.ar    1  UNL1        0.1381
     21 C          62.8618   88.9305   16.8115 C.ar    1  UNL1        0.0369
     22 C          62.8477   87.5258   17.3374 C.ar    1  UNL1        0.0028
     23 C          63.5521   86.4361   16.5850 C.ar    1  UNL1       -0.0024
     24 C          64.2706   86.7510   15.3064 C.ar    1  UNL1        0.0007
     25 C          64.2847   88.1558   14.7804 C.ar    1  UNL1        0.0343
     26 O          63.5943   90.6502   15.0071 O.3     1  UNL1       -0.4792
     27 C          65.9338   91.3603   14.1282 C.3     1  UNL1        0.0472
     28 C          64.4976   91.0150   13.8666 C.3     1  UNL1        0.1661
     29 C          63.9650   91.0347   12.4645 C.3     1  UNL1        0.0472
@<TRIPOS>BOND
     1    27    28    1
     2    28    29    1
     3    28    26    1
     4    26    20    1
     5    20    21   ar
     6    21    22   ar
     7    22    23   ar
     8    23    24   ar
     9    24    19    1
    10    19     1    1
    11     1     2   am
    12     2     3    2
    13     2    13    1
    14    13    14   ar
    15    14    15   ar
    16    15    16    1
    17    15    17   ar
    18    17    18   ar
    19     4     1    1
    20     4     5    1
    21     6     5    1
    22     6     7    1
    23     7     8    1
    24     8     9    1
    25    10     9    1
    26    10    11    1
    27    24    25   ar
    28    25    20   ar
    29    18    13   ar
    30    11     4    1
    31    10     6    1
    32     8    12    1
@<TRIPOS>MOLECULE
*****
 29 32 0 0 0
SMALL
GASTEIGER

@<TRIPOS>ATOM
      1 N          64.0516   90.6164   14.6757 N.am    1  UNL1       -0.2723
      2 C          63.5790   90.8650   13.2740 C.2     1  UNL1        0.2685
      3 O          63.8422   92.1876   12.6171 O.2     1  UNL1       -0.2682
      4 C          63.7885   89.2939   15.3325 C.3     1  UNL1        0.0761
      5 C          64.2988   87.9619   14.8684 C.3     1  UNL1        0.0213
      6 C          63.7945   86.9158   15.8178 C.3     1  UNL1        0.0188
      7 C          63.7982   85.4461   16.1177 C.3     1  UNL1        0.0686
      8 N          62.9785   85.2232   17.3540 N.3     1  UNL1       -0.2975
      9 C          62.4681   86.5552   17.8182 C.3     1  UNL1        0.0686
     10 C          62.9725   87.6013   16.8687 C.3     1  UNL1        0.0188
     11 C          62.9687   89.0710   16.5688 C.3     1  UNL1        0.0213
     12 H          63.5563   84.8015   18.0811 H       1  UNL1        0.1232
     13 C          62.8432   89.7909   12.5291 C.ar    1  UNL1        0.1535
     14 C          61.4620   89.9039   11.9550 C.ar    1  UNL1        0.1012
     15 N          61.1246   88.5981   11.2986 N.ar    1  UNL1       -0.3057
     16 C          59.8401   88.2699   10.5969 C.3     1  UNL1        0.1321
     17 C          62.2972   87.6780   11.4669 C.ar    1  UNL1        0.1787
     18 N          63.3593   88.4152   12.2274 N.ar    1  UNL1       -0.2192
     19 C          64.7875   91.6906   15.4206 C.3     1  UNL1        0.1205
     20 C          68.1976   91.9773   13.4109 C.ar    1  UNL1        0.1381
     21 C          69.1030   92.5375   14.4675 C.ar    1  UNL1        0.0369
     22 C          68.5699   92.8153   15.8418 C.ar    1  UNL1        0.0028
     23 C          67.1315   92.5330   16.1595 C.ar    1  UNL1       -0.0024
     24 C          66.2259   91.9729   15.1030 C.ar    1  UNL1        0.0007
     25 C          66.7590   91.6950   13.7286 C.ar    1  UNL1        0.0343
     26 O          68.7307   91.6995   12.0367 O.3     1  UNL1       -0.4792
     27 C          66.7190   92.9510   10.9705 C.3     1  UNL1        0.0472
     28 C          68.0699   92.3125   10.8378 C.3     1  UNL1        0.1661
     29 C          68.7599   92.2871    9.5061 C.3     1  UNL1        0.0472
@<TRIPOS>BOND
     1    27    28    1
     2    28    29    1
     3    28    26    1
     4    26    20    1
     5    20    21   ar
     6    21    22   ar
     7    22    23   ar
     8    23    24   ar
     9    24    19    1
    10    19     1    1
    11     1     2   am
    12     2     3    2
    13     2    13    1
    14    13    14   ar
    15    14    15   ar
    16    15    16    1
    17    15    17   ar
    18    17    18   ar
    19     4     1    1
    20     4     5    1
    21     6     5    1
    22     6     7    1
    23     7     8    1
    24     8     9    1
    25    10     9    1
    26    10    11    1
    27    24    25   ar
    28    25    20   ar
    29    18    13   ar
    30    11     4    1
    31    10     6    1
    32     8    12    1
@<TRIPOS>MOLECULE
*****
 29 32 0 0 0
SMALL
GASTEIGER

@<TRIPOS>ATOM
      1 N          64.7310   92.0681   12.6449 N.am    1  UNL1       -0.2723
      2 C          65.3165   91.6967   13.9750 C.2     1  UNL1        0.2685
      3 O          64.5138   90.8840   14.9473 O.2     1  UNL1       -0.2682
      4 C          65.5336   92.8806   11.6727 C.3     1  UNL1        0.0761
      5 C          65.6973   94.3716   11.6935 C.3     1  UNL1        0.0213
      6 C          66.5784   94.7574   10.5425 C.3     1  UNL1        0.0188
      7 C          67.2241   95.9173    9.8441 C.3     1  UNL1        0.0686
      8 N          68.0041   95.3816    8.6803 N.3     1  UNL1       -0.2975
      9 C          67.8405   93.8907    8.6593 C.3     1  UNL1        0.0686
     10 C          66.9594   93.5049    9.8103 C.3     1  UNL1        0.0188
     11 C          66.3137   92.3450   10.5087 C.3     1  UNL1        0.0213
     12 H          68.9902   95.6202    8.7853 H       1  UNL1        0.1232
     13 C          66.7048   92.1379   14.3328 C.ar    1  UNL1        0.1535
     14 C          67.0633   93.1927   15.3372 C.ar    1  UNL1        0.1012
     15 N          68.5584   93.3084   15.3742 N.ar    1  UNL1       -0.3057
     16 C          69.3491   94.2433   16.2406 C.3     1  UNL1        0.1321
     17 C          69.1238   92.3252   14.3927 C.ar    1  UNL1        0.1787
     18 N          67.9783   91.6018   13.7491 N.ar    1  UNL1       -0.2192
     19 C          63.3426   91.6268   12.2871 C.3     1  UNL1        0.1205
     20 C          63.0798   87.6670   12.3057 C.ar    1  UNL1        0.1381
     21 C          62.6085   87.4076   10.9055 C.ar    1  UNL1        0.0369
     22 C          62.3820   88.5547    9.9658 C.ar    1  UNL1        0.0028
     23 C          62.6266   89.9611   10.4263 C.ar    1  UNL1       -0.0024
     24 C          63.0979   90.2205   11.8266 C.ar    1  UNL1        0.0007
     25 C          63.3245   89.0734   12.7663 C.ar    1  UNL1        0.0343
     26 O          63.3063   86.5199   13.2453 O.3     1  UNL1       -0.4792
     27 C          64.4262   84.1761   13.1944 C.3     1  UNL1        0.0472
     28 C          63.3599   85.1171   12.7171 C.3     1  UNL1        0.1661
     29 C          62.3472   84.6550   11.7116 C.3     1  UNL1        0.0472
@<TRIPOS>BOND
     1    27    28    1
     2    28    29    1
     3    28    26    1
     4    26    20    1
     5    20    21   ar
     6    21    22   ar
     7    22    23   ar
     8    23    24   ar
     9    24    19    1
    10    19     1    1
    11     1     2   am
    12     2     3    2
    13     2    13    1
    14    13    14   ar
    15    14    15   ar
    16    15    16    1
    17    15    17   ar
    18    17    18   ar
    19     4     1    1
    20     4     5    1
    21     6     5    1
    22     6     7    1
    23     7     8    1
    24     8     9    1
    25    10     9    1
    26    10    11    1
    27    24    25   ar
    28    25    20   ar
    29    18    13   ar
    30    11     4    1
    31    10     6    1
    32     8    12    1
@<TRIPOS>MOLECULE
*****
 29 32 0 0 0
SMALL
GASTEIGER

@<TRIPOS>ATOM
      1 N          62.3331   88.7799   12.0596 N.am    1  UNL1       -0.2723
      2 C          63.1042   87.6222   12.6210 C.2     1  UNL1        0.2685
      3 O          63.9882   87.8190   13.8168 O.2     1  UNL1       -0.2682
      4 C          61.4492   88.5830   10.8639 C.3     1  UNL1        0.0761
      5 C          61.3693   89.4853    9.6682 C.3     1  UNL1        0.0213
      6 C          60.3606   88.9092    8.7192 C.3     1  UNL1        0.0188
      7 C          59.6879   89.1108    7.3938 C.3     1  UNL1        0.0686
      8 N          58.7285   87.9770    7.1838 N.3     1  UNL1       -0.2975
      9 C          58.8083   87.0747    8.3794 C.3     1  UNL1        0.0686
     10 C          59.8170   87.6508    9.3284 C.3     1  UNL1        0.0188
     11 C          60.4897   87.4492   10.6538 C.3     1  UNL1        0.0213
     12 H          58.9828   87.4598    6.3422 H       1  UNL1        0.1232
     13 C          62.9914   86.2676   11.9867 C.ar    1  UNL1        0.1535
     14 C          62.8638   84.9616   12.7133 C.ar    1  UNL1        0.1012
     15 N          62.7799   83.8681   11.6901 N.ar    1  UNL1       -0.3057
     16 C          62.6441   82.4018   11.9757 C.3     1  UNL1        0.1321
     17 C          62.8555   84.4983   10.3310 C.ar    1  UNL1        0.1787
     18 N          62.9862   85.9812   10.5143 N.ar    1  UNL1       -0.2192
     19 C          62.4460   90.1345   12.6940 C.3     1  UNL1        0.1205
     20 C          65.4347   92.3563   11.3224 C.ar    1  UNL1        0.1381
     21 C          66.3395   92.3839   12.5185 C.ar    1  UNL1        0.0369
     22 C          65.9464   91.6617   13.7730 C.ar    1  UNL1        0.0028
     23 C          64.6486   90.9119   13.8316 C.ar    1  UNL1       -0.0024
     24 C          63.7438   90.8842   12.6355 C.ar    1  UNL1        0.0007
     25 C          64.1368   91.6065   11.3809 C.ar    1  UNL1        0.0343
     26 O          65.8278   93.0785   10.0679 O.3     1  UNL1       -0.4792
     27 C          68.1779   92.0181    9.7477 C.3     1  UNL1        0.0472
     28 C          67.2764   93.2163    9.7044 C.3     1  UNL1        0.1661
     29 C          67.8238   94.5523    9.2975 C.3     1  UNL1        0.0472
@<TRIPOS>BOND
     1    27    28    1
     2    28    29    1
     3    28    26    1
     4    26    20    1
     5    20    21   ar
     6    21    22   ar
     7    22    23   ar
     8    23    24   ar
     9    24    19    1
    10    19     1    1
    11     1     2   am
    12     2     3    2
    13     2    13    1
    14    13    14   ar
    15    14    15   ar
    16    15    16    1
    17    15    17   ar
    18    17    18   ar
    19     4     1    1
    20     4     5    1
    21     6     5    1
    22     6     7    1
    23     7     8    1
    24     8     9    1
    25    10     9    1
    26    10    11    1
    27    24    25   ar
    28    25    20   ar
    29    18    13   ar
    30    11     4    1
    31    10     6    1
    32     8    12    1
@<TRIPOS>MOLECULE
*****
 29 32 0 0 0
SMALL
GASTEIGER

@<TRIPOS>ATOM
      1 N          64.6216   91.9719   12.6100 N.am    1  UNL1       -0.2723
      2 C          65.0595   91.7059   14.0198 C.2     1  UNL1        0.2685
      3 O          64.1283   91.0251   14.9787 O.2     1  UNL1       -0.2682
      4 C          65.5528   92.6525   11.6512 C.3     1  UNL1        0.0761
      5 C          65.5724   94.1179   11.3312 C.3     1  UNL1        0.0213
      6 C          66.6597   94.3585   10.3262 C.3     1  UNL1        0.0188
      7 C          67.3437   95.4128    9.5074 C.3     1  UNL1        0.0686
      8 N          68.4189   94.7476    8.7001 N.3     1  UNL1       -0.2975
      9 C          68.3993   93.2823    9.0201 C.3     1  UNL1        0.0686
     10 C          67.3121   93.0417   10.0251 C.3     1  UNL1        0.0188
     11 C          66.6280   91.9874   10.8439 C.3     1  UNL1        0.0213
     12 H          69.3277   95.1426    8.9419 H       1  UNL1        0.1232
     13 C          66.4287   92.1206   14.4707 C.ar    1  UNL1        0.1535
     14 C          66.7819   93.4158   15.1399 C.ar    1  UNL1        0.1012
     15 N          68.2565   93.4087   15.4144 N.ar    1  UNL1       -0.3057
     16 C          69.0361   94.5081   16.0728 C.3     1  UNL1        0.1321
     17 C          68.8147   92.1091   14.9149 C.ar    1  UNL1        0.1787
     18 N          67.6850   91.3131   14.3317 N.ar    1  UNL1       -0.2192
     19 C          63.2524   91.5571   12.1591 C.3     1  UNL1        0.1205
     20 C          61.9645   88.3478   10.2119 C.ar    1  UNL1        0.1381
     21 C          62.4303   87.2548   11.1275 C.ar    1  UNL1        0.0369
     22 C          63.1702   87.5959   12.3870 C.ar    1  UNL1        0.0028
     23 C          63.4442   89.0299   12.7309 C.ar    1  UNL1       -0.0024
     24 C          62.9784   90.1230   11.8153 C.ar    1  UNL1        0.0007
     25 C          62.2385   89.7819   10.5557 C.ar    1  UNL1        0.0343
     26 O          61.2246   88.0066    8.9525 O.3     1  UNL1       -0.4792
     27 C          59.9873   86.0050    7.8512 C.3     1  UNL1        0.0472
     28 C          61.2353   86.5991    8.4342 C.3     1  UNL1        0.1661
     29 C          62.4939   85.7855    8.4989 C.3     1  UNL1        0.0472
@<TRIPOS>BOND
     1    27    28    1
     2    28    29    1
     3    28    26    1
     4    26    20    1
     5    20    21   ar
     6    21    22   ar
     7    22    23   ar
     8    23    24   ar
     9    24    19    1
    10    19     1    1
    11     1     2   am
    12     2     3    2
    13     2    13    1
    14    13    14   ar
    15    14    15   ar
    16    15    16    1
    17    15    17   ar
    18    17    18   ar
    19     4     1    1
    20     4     5    1
    21     6     5    1
    22     6     7    1
    23     7     8    1
    24     8     9    1
    25    10     9    1
    26    10    11    1
    27    24    25   ar
    28    25    20   ar
    29    18    13   ar
    30    11     4    1
    31    10     6    1
    32     8    12    1
