@<TRIPOS>MOLECULE
*****
 39 41 0 0 0
SMALL
GASTEIGER

@<TRIPOS>ATOM
      1 C          62.4624   89.6203   11.6290 C.3     1  UNL1        0.1281
      2 C          62.8852   89.1828   13.0002 C.2     1  UNL1        0.2325
      3 O          62.4572   89.9694   14.2036 O.2     1  UNL1       -0.2742
      4 N          63.7359   87.9588   13.1678 N.am    1  UNL1       -0.3033
      5 H          64.0168   87.4426   12.3780 H       1  UNL1        0.1495
      6 C          64.1586   87.5214   14.5389 C.3     1  UNL1        0.0941
      7 C          64.7739   86.1679   14.7380 C.3     1  UNL1        0.0492
      8 C          64.0198   84.9349   14.3368 C.ar    1  UNL1       -0.0013
      9 C          63.5616   84.7643   12.9187 C.ar    1  UNL1       -0.0011
     10 C          62.8074   83.5312   12.5174 C.ar    1  UNL1        0.0204
     11 C          62.5116   82.4689   13.5342 C.ar    1  UNL1        0.0989
     12 N          62.9699   82.6396   14.9523 N.ar    1  UNL1       -0.2426
     13 C          63.7240   83.8726   15.3536 C.ar    1  UNL1        0.0946
     14 S          63.3574   90.5077   10.8157 S.3     1  UNL1       -0.1298
     15 C          63.6006   91.9241   11.2457 C.3     1  UNL1        0.0780
     16 C          64.8667   92.2823   11.9659 C.3     1  UNL1        0.0899
     17 C          66.7157   93.6421   10.7484 C.2     1  UNL1        0.4014
     18 O          67.2080   92.3858   10.0930 O.2     1  UNL1       -0.2264
     19 N          65.5451   93.5904   11.6848 N.am    1  UNL1       -0.2711
     20 H          65.2220   94.4149   12.1150 H       1  UNL1        0.1527
     21 O          67.3940   94.9501   10.4673 O.3     1  UNL1       -0.4419
     22 C          67.3422   95.0417    8.3486 C.3     1  UNL1        0.0437
     23 C          66.8104   95.8966    9.4605 C.3     1  UNL1        0.1378
     24 C          66.2786   96.7514   10.5725 C.3     1  UNL1        0.0437
     25 C          66.2268   96.8430    8.4538 C.3     1  UNL1        0.0437
     26 C          65.4544   91.3326   12.9671 C.3     1  UNL1        0.0469
     27 C          66.4550   91.8249   13.9703 C.ar    1  UNL1       -0.0205
     28 C          65.9904   92.3622   15.2915 C.ar    1  UNL1       -0.0042
     29 C          66.9910   92.8546   16.2947 C.ar    1  UNL1       -0.0003
     30 C          68.4562   92.8096   15.9767 C.ar    1  UNL1       -0.0000
     31 C          68.9209   92.2724   14.6556 C.ar    1  UNL1       -0.0003
     32 C          67.9203   91.7800   13.6523 C.ar    1  UNL1       -0.0042
     33 C          61.1447   89.1703   11.0712 C.3     1  UNL1        0.0463
     34 C          61.0999   88.0894   10.0321 C.ar    1  UNL1       -0.0208
     35 C          62.2137   87.0888    9.9423 C.ar    1  UNL1       -0.0042
     36 C          62.1688   86.0080    8.9032 C.ar    1  UNL1       -0.0003
     37 C          61.0102   85.9278    7.9539 C.ar    1  UNL1       -0.0000
     38 C          59.8964   86.9285    8.0437 C.ar    1  UNL1       -0.0003
     39 C          59.9413   88.0093    9.0828 C.ar    1  UNL1       -0.0042
@<TRIPOS>BOND
     1    22    23    1
     2    23    24    1
     3    23    25    1
     4    23    21    1
     5    21    17    1
     6    17    18    2
     7    17    19   am
     8    19    16    1
     9    16    15    1
    10    15    14    1
    11    14     1    1
    12     1    33    1
    13    33    34    1
    14    34    35   ar
    15    35    36   ar
    16    36    37   ar
    17    37    38   ar
    18    38    39   ar
    19     1     2    1
    20     2     3    2
    21     2     4   am
    22     4     6    1
    23     6     7    1
    24     7     8    1
    25     8     9   ar
    26     9    10   ar
    27    10    11   ar
    28    11    12   ar
    29    12    13   ar
    30    16    26    1
    31    26    27    1
    32    27    28   ar
    33    28    29   ar
    34    29    30   ar
    35    30    31   ar
    36    31    32   ar
    37    39    34   ar
    38    13     8   ar
    39    32    27   ar
    40    19    20    1
    41     4     5    1
@<TRIPOS>MOLECULE
*****
 39 41 0 0 0
SMALL
GASTEIGER

@<TRIPOS>ATOM
      1 C          64.0968   89.8321   14.5913 C.3     1  UNL1        0.1281
      2 C          63.9186   88.4838   15.2242 C.2     1  UNL1        0.2325
      3 O          63.2612   88.3667   16.5673 O.2     1  UNL1       -0.2742
      4 N          64.3978   87.2527   14.5138 N.am    1  UNL1       -0.3033
      5 H          64.8293   87.3296   13.6323 H       1  UNL1        0.1495
      6 C          64.2197   85.9045   15.1467 C.3     1  UNL1        0.0941
      7 C          63.2515   84.9216   14.5578 C.3     1  UNL1        0.0492
      8 C          63.4983   84.3518   13.1925 C.ar    1  UNL1       -0.0013
      9 C          62.7854   84.9214   12.0020 C.ar    1  UNL1       -0.0011
     10 C          63.0322   84.3515   10.6365 C.ar    1  UNL1        0.0204
     11 C          63.9920   83.2122   10.4616 C.ar    1  UNL1        0.0989
     12 N          64.7050   82.6426   11.6521 N.ar    1  UNL1       -0.2426
     13 C          64.4581   83.2124   13.0175 C.ar    1  UNL1        0.0946
     14 S          63.8902   90.0010   13.1152 S.3     1  UNL1       -0.1298
     15 C          63.7480   91.3749   12.5302 C.3     1  UNL1        0.0780
     16 C          63.9921   91.5958   11.0668 C.3     1  UNL1        0.0899
     17 C          66.0701   93.1197   11.3987 C.2     1  UNL1        0.4014
     18 O          65.4794   93.6476   12.6725 O.2     1  UNL1       -0.2264
     19 N          65.3265   92.0938   10.5958 N.am    1  UNL1       -0.2711
     20 H          65.7141   91.7473    9.7598 H       1  UNL1        0.1527
     21 O          67.4043   93.6177   10.9278 O.3     1  UNL1       -0.4419
     22 C          66.7482   95.4735   10.1370 C.3     1  UNL1        0.0437
     23 C          67.5221   94.3060    9.6003 C.3     1  UNL1        0.1378
     24 C          68.2960   93.1385    9.0636 C.3     1  UNL1        0.0437
     25 C          67.6398   94.9944    8.2728 C.3     1  UNL1        0.0437
     26 C          62.9021   91.3188   10.0743 C.3     1  UNL1        0.0469
     27 C          61.9661   90.1668   10.2904 C.ar    1  UNL1       -0.0205
     28 C          60.6456   90.3898   10.9662 C.ar    1  UNL1       -0.0042
     29 C          59.7097   89.2378   11.1823 C.ar    1  UNL1       -0.0003
     30 C          60.0941   87.8627   10.7227 C.ar    1  UNL1       -0.0000
     31 C          61.4146   87.6396   10.0470 C.ar    1  UNL1       -0.0003
     32 C          62.3506   88.7916    9.8309 C.ar    1  UNL1       -0.0042
     33 C          64.4815   91.0115   15.4345 C.3     1  UNL1        0.0463
     34 C          65.8537   91.6051   15.3124 C.ar    1  UNL1       -0.0208
     35 C          66.8091   91.0798   14.2823 C.ar    1  UNL1       -0.0042
     36 C          68.1812   91.6735   14.1603 C.ar    1  UNL1       -0.0003
     37 C          68.5978   92.7923   15.0683 C.ar    1  UNL1       -0.0000
     38 C          67.6424   93.3175   16.0985 C.ar    1  UNL1       -0.0003
     39 C          66.2703   92.7239   16.2205 C.ar    1  UNL1       -0.0042
@<TRIPOS>BOND
     1    22    23    1
     2    23    24    1
     3    23    25    1
     4    23    21    1
     5    21    17    1
     6    17    18    2
     7    17    19   am
     8    19    16    1
     9    16    15    1
    10    15    14    1
    11    14     1    1
    12     1    33    1
    13    33    34    1
    14    34    35   ar
    15    35    36   ar
    16    36    37   ar
    17    37    38   ar
    18    38    39   ar
    19     1     2    1
    20     2     3    2
    21     2     4   am
    22     4     6    1
    23     6     7    1
    24     7     8    1
    25     8     9   ar
    26     9    10   ar
    27    10    11   ar
    28    11    12   ar
    29    12    13   ar
    30    16    26    1
    31    26    27    1
    32    27    28   ar
    33    28    29   ar
    34    29    30   ar
    35    30    31   ar
    36    31    32   ar
    37    39    34   ar
    38    13     8   ar
    39    32    27   ar
    40    19    20    1
    41     4     5    1
@<TRIPOS>MOLECULE
*****
 39 41 0 0 0
SMALL
GASTEIGER

@<TRIPOS>ATOM
      1 C          62.3668   89.8329   12.2415 C.3     1  UNL1        0.1281
      2 C          62.8915   89.2705   13.5294 C.2     1  UNL1        0.2325
      3 O          62.4727   89.8742   14.8371 O.2     1  UNL1       -0.2742
      4 N          63.8350   88.1046   13.5094 N.am    1  UNL1       -0.3033
      5 H          64.1099   87.7085   12.6511 H       1  UNL1        0.1495
      6 C          64.3597   87.5424   14.7972 C.3     1  UNL1        0.0941
      7 C          65.0414   86.2062   14.8097 C.3     1  UNL1        0.0492
      8 C          64.2367   84.9521   14.6374 C.ar    1  UNL1       -0.0013
      9 C          64.6659   83.9166   13.6407 C.ar    1  UNL1       -0.0011
     10 C          63.8611   82.6625   13.4684 C.ar    1  UNL1        0.0204
     11 C          62.6273   82.4439   14.2928 C.ar    1  UNL1        0.0989
     12 N          62.1981   83.4794   15.2896 N.ar    1  UNL1       -0.2426
     13 C          63.0028   84.7335   15.4619 C.ar    1  UNL1        0.0946
     14 S          60.8898   89.8590   11.9812 S.3     1  UNL1       -0.1298
     15 C          60.3719   90.2908   10.6413 C.3     1  UNL1        0.0780
     16 C          60.1590   89.2764    9.5570 C.3     1  UNL1        0.0899
     17 C          59.3509   89.0297    7.1001 C.2     1  UNL1        0.4014
     18 O          58.3944   87.9542    7.5228 O.2     1  UNL1       -0.2264
     19 N          60.2332   89.6907    8.1172 N.am    1  UNL1       -0.2711
     20 H          60.8610   90.3966    7.8398 H       1  UNL1        0.1527
     21 O          59.4250   89.4439    5.6604 O.3     1  UNL1       -0.4419
     22 C          57.7521   90.7467    5.5969 C.3     1  UNL1        0.0437
     23 C          59.2124   90.8795    5.2812 C.3     1  UNL1        0.1378
     24 C          60.6728   91.0124    4.9654 C.3     1  UNL1        0.0437
     25 C          58.9998   92.3151    4.9019 C.3     1  UNL1        0.0437
     26 C          59.8720   87.8477    9.9124 C.3     1  UNL1        0.0469
     27 C          60.9663   86.8240    9.8464 C.ar    1  UNL1       -0.0205
     28 C          61.5928   86.4798    8.5276 C.ar    1  UNL1       -0.0042
     29 C          62.6872   85.4562    8.4615 C.ar    1  UNL1       -0.0003
     30 C          63.1551   84.7766    9.7142 C.ar    1  UNL1       -0.0000
     31 C          62.5287   85.1208   11.0330 C.ar    1  UNL1       -0.0003
     32 C          61.4343   86.1445   11.0991 C.ar    1  UNL1       -0.0042
     33 C          63.3190   90.3691   11.2141 C.3     1  UNL1        0.0463
     34 C          64.2759   91.4655   11.5781 C.ar    1  UNL1       -0.0208
     35 C          64.6973   92.4671   10.5442 C.ar    1  UNL1       -0.0042
     36 C          65.6541   93.5634   10.9082 C.ar    1  UNL1       -0.0003
     37 C          66.1895   93.6581   12.3062 C.ar    1  UNL1       -0.0000
     38 C          65.7680   92.6565   13.3402 C.ar    1  UNL1       -0.0003
     39 C          64.8112   91.5602   12.9761 C.ar    1  UNL1       -0.0042
@<TRIPOS>BOND
     1    22    23    1
     2    23    24    1
     3    23    25    1
     4    23    21    1
     5    21    17    1
     6    17    18    2
     7    17    19   am
     8    19    16    1
     9    16    15    1
    10    15    14    1
    11    14     1    1
    12     1    33    1
    13    33    34    1
    14    34    35   ar
    15    35    36   ar
    16    36    37   ar
    17    37    38   ar
    18    38    39   ar
    19     1     2    1
    20     2     3    2
    21     2     4   am
    22     4     6    1
    23     6     7    1
    24     7     8    1
    25     8     9   ar
    26     9    10   ar
    27    10    11   ar
    28    11    12   ar
    29    12    13   ar
    30    16    26    1
    31    26    27    1
    32    27    28   ar
    33    28    29   ar
    34    29    30   ar
    35    30    31   ar
    36    31    32   ar
    37    39    34   ar
    38    13     8   ar
    39    32    27   ar
    40    19    20    1
    41     4     5    1
@<TRIPOS>MOLECULE
*****
 39 41 0 0 0
SMALL
GASTEIGER

@<TRIPOS>ATOM
      1 C          62.4329   89.2841   11.3531 C.3     1  UNL1        0.1281
      2 C          62.9255   88.0958   12.1247 C.2     1  UNL1        0.2325
      3 O          63.7796   88.2935   13.3419 O.2     1  UNL1       -0.2742
      4 N          62.5641   86.7099   11.6792 N.am    1  UNL1       -0.3033
      5 H          62.0035   86.5802   10.8803 H       1  UNL1        0.1495
      6 C          63.0567   85.5217   12.4508 C.3     1  UNL1        0.0941
      7 C          63.2623   84.2086   11.7554 C.3     1  UNL1        0.0492
      8 C          62.9483   82.9259   12.4668 C.ar    1  UNL1       -0.0013
      9 C          62.9750   81.6268   11.7175 C.ar    1  UNL1       -0.0011
     10 C          62.6609   80.3440   12.4289 C.ar    1  UNL1        0.0204
     11 C          62.3202   80.3605   13.8896 C.ar    1  UNL1        0.0989
     12 N          62.2936   81.6597   14.6389 N.ar    1  UNL1       -0.2426
     13 C          62.6076   82.9424   13.9275 C.ar    1  UNL1        0.0946
     14 S          63.4040   90.3218   10.8732 S.3     1  UNL1       -0.1298
     15 C          63.4625   91.6618   11.5448 C.3     1  UNL1        0.0780
     16 C          64.7157   92.0952   12.2460 C.3     1  UNL1        0.0899
     17 C          66.4672   93.5135   10.9534 C.2     1  UNL1        0.4014
     18 O          66.9886   92.2701   10.2958 O.2     1  UNL1       -0.2264
     19 N          65.3308   93.4260   11.9285 N.am    1  UNL1       -0.2711
     20 H          64.9886   94.2420   12.3602 H       1  UNL1        0.1527
     21 O          67.0823   94.8442   10.6360 O.3     1  UNL1       -0.4419
     22 C          65.6321   96.3347   10.2175 C.3     1  UNL1        0.0437
     23 C          66.6557   95.5941    9.4089 C.3     1  UNL1        0.1378
     24 C          67.6792   94.8534    8.6004 C.3     1  UNL1        0.0437
     25 C          66.2290   96.3440    8.1819 C.3     1  UNL1        0.0437
     26 C          65.3538   91.1979   13.2646 C.3     1  UNL1        0.0469
     27 C          66.4223   91.7330   14.1710 C.ar    1  UNL1       -0.0205
     28 C          67.8590   91.6940   13.7415 C.ar    1  UNL1       -0.0042
     29 C          68.9276   92.2292   14.6479 C.ar    1  UNL1       -0.0003
     30 C          68.5596   92.8034   15.9839 C.ar    1  UNL1       -0.0000
     31 C          67.1230   92.8425   16.4135 C.ar    1  UNL1       -0.0003
     32 C          66.0543   92.3073   15.5070 C.ar    1  UNL1       -0.0042
     33 C          60.9693   89.4348   11.0614 C.3     1  UNL1        0.0463
     34 C          60.3842   88.8218    9.8237 C.ar    1  UNL1       -0.0208
     35 C          60.0295   87.3645    9.8041 C.ar    1  UNL1       -0.0042
     36 C          59.4445   86.7516    8.5664 C.ar    1  UNL1       -0.0003
     37 C          59.2141   87.5960    7.3482 C.ar    1  UNL1       -0.0000
     38 C          59.5688   89.0533    7.3678 C.ar    1  UNL1       -0.0003
     39 C          60.1538   89.6662    8.6055 C.ar    1  UNL1       -0.0042
@<TRIPOS>BOND
     1    22    23    1
     2    23    24    1
     3    23    25    1
     4    23    21    1
     5    21    17    1
     6    17    18    2
     7    17    19   am
     8    19    16    1
     9    16    15    1
    10    15    14    1
    11    14     1    1
    12     1    33    1
    13    33    34    1
    14    34    35   ar
    15    35    36   ar
    16    36    37   ar
    17    37    38   ar
    18    38    39   ar
    19     1     2    1
    20     2     3    2
    21     2     4   am
    22     4     6    1
    23     6     7    1
    24     7     8    1
    25     8     9   ar
    26     9    10   ar
    27    10    11   ar
    28    11    12   ar
    29    12    13   ar
    30    16    26    1
    31    26    27    1
    32    27    28   ar
    33    28    29   ar
    34    29    30   ar
    35    30    31   ar
    36    31    32   ar
    37    39    34   ar
    38    13     8   ar
    39    32    27   ar
    40    19    20    1
    41     4     5    1
@<TRIPOS>MOLECULE
*****
 39 41 0 0 0
SMALL
GASTEIGER

@<TRIPOS>ATOM
      1 C          63.8590   90.2822   13.4681 C.3     1  UNL1        0.1281
      2 C          64.7288   91.2858   12.7705 C.2     1  UNL1        0.2325
      3 O          64.4570   91.6484   11.3406 O.2     1  UNL1       -0.2742
      4 N          65.8702   91.9266   13.5029 N.am    1  UNL1       -0.3033
      5 H          66.0486   91.6886   14.4414 H       1  UNL1        0.1495
      6 C          66.7399   92.9301   12.8053 C.3     1  UNL1        0.0941
      7 C          66.1530   94.2223   12.3196 C.3     1  UNL1        0.0492
      8 C          66.5892   94.7968   11.0045 C.ar    1  UNL1       -0.0013
      9 C          67.0549   93.8874    9.9064 C.ar    1  UNL1       -0.0011
     10 C          67.4912   94.4619    8.5912 C.ar    1  UNL1        0.0204
     11 C          67.4618   95.9458    8.3742 C.ar    1  UNL1        0.0989
     12 N          66.9961   96.8553    9.4725 N.ar    1  UNL1       -0.2426
     13 C          66.5598   96.2807   10.7876 C.ar    1  UNL1        0.0946
     14 S          62.8808   89.4618   12.6808 S.3     1  UNL1       -0.1298
     15 C          63.2452   88.0731   12.2462 C.3     1  UNL1        0.0780
     16 C          62.2758   87.2611   11.4393 C.3     1  UNL1        0.0899
     17 C          62.5726   84.8493   12.3588 C.2     1  UNL1        0.4014
     18 O          64.0515   84.9425   12.1258 O.2     1  UNL1       -0.2264
     19 N          61.6847   86.0086   12.0156 N.am    1  UNL1       -0.2711
     20 H          60.7141   85.9475   12.1685 H       1  UNL1        0.1527
     21 O          61.9816   83.5969   12.9350 O.3     1  UNL1       -0.4419
     22 C          62.9996   82.8872   14.6555 C.3     1  UNL1        0.0437
     23 C          62.8631   82.4212   13.2362 C.3     1  UNL1        0.1378
     24 C          62.7267   81.9552   11.8170 C.3     1  UNL1        0.0437
     25 C          63.7447   81.2456   13.5375 C.3     1  UNL1        0.0437
     26 C          61.8975   87.7016   10.0563 C.3     1  UNL1        0.0469
     27 C          61.7693   86.6903    8.9559 C.ar    1  UNL1       -0.0205
     28 C          60.4646   86.5292    8.2336 C.ar    1  UNL1       -0.0042
     29 C          60.3364   85.5179    7.1332 C.ar    1  UNL1       -0.0003
     30 C          61.5129   84.6677    6.7552 C.ar    1  UNL1       -0.0000
     31 C          62.8176   84.8287    7.4775 C.ar    1  UNL1       -0.0003
     32 C          62.9458   85.8400    8.5779 C.ar    1  UNL1       -0.0042
     33 C          63.9676   90.0992   14.9529 C.3     1  UNL1        0.0463
     34 C          63.8040   88.7347   15.5543 C.ar    1  UNL1       -0.0208
     35 C          63.0096   88.5610   16.8148 C.ar    1  UNL1       -0.0042
     36 C          62.8460   87.1967   17.4161 C.ar    1  UNL1       -0.0003
     37 C          63.4769   86.0060   16.7571 C.ar    1  UNL1       -0.0000
     38 C          64.2713   86.1797   15.4967 C.ar    1  UNL1       -0.0003
     39 C          64.4348   87.5441   14.8953 C.ar    1  UNL1       -0.0042
@<TRIPOS>BOND
     1    22    23    1
     2    23    24    1
     3    23    25    1
     4    23    21    1
     5    21    17    1
     6    17    18    2
     7    17    19   am
     8    19    16    1
     9    16    15    1
    10    15    14    1
    11    14     1    1
    12     1    33    1
    13    33    34    1
    14    34    35   ar
    15    35    36   ar
    16    36    37   ar
    17    37    38   ar
    18    38    39   ar
    19     1     2    1
    20     2     3    2
    21     2     4   am
    22     4     6    1
    23     6     7    1
    24     7     8    1
    25     8     9   ar
    26     9    10   ar
    27    10    11   ar
    28    11    12   ar
    29    12    13   ar
    30    16    26    1
    31    26    27    1
    32    27    28   ar
    33    28    29   ar
    34    29    30   ar
    35    30    31   ar
    36    31    32   ar
    37    39    34   ar
    38    13     8   ar
    39    32    27   ar
    40    19    20    1
    41     4     5    1
@<TRIPOS>MOLECULE
*****
 39 41 0 0 0
SMALL
GASTEIGER

@<TRIPOS>ATOM
      1 C          62.7726   89.7536   12.0011 C.3     1  UNL1        0.1281
      2 C          63.4682   89.3102   13.2539 C.2     1  UNL1        0.2325
      3 O          63.8696   90.3211   14.2868 O.2     1  UNL1       -0.2742
      4 N          63.7625   87.8559   13.4738 N.am    1  UNL1       -0.3033
      5 H          63.4991   87.1924   12.7958 H       1  UNL1        0.1495
      6 C          64.4581   87.4125   14.7265 C.3     1  UNL1        0.0941
      7 C          63.9053   86.2710   15.5276 C.3     1  UNL1        0.0492
      8 C          63.6747   84.9398   14.8759 C.ar    1  UNL1       -0.0013
      9 C          64.5260   84.5150   13.7163 C.ar    1  UNL1       -0.0011
     10 C          64.2954   83.1837   13.0646 C.ar    1  UNL1        0.0204
     11 C          63.2135   82.2774   13.5726 C.ar    1  UNL1        0.0989
     12 N          62.3622   82.7023   14.7322 N.ar    1  UNL1       -0.2426
     13 C          62.5928   84.0335   15.3839 C.ar    1  UNL1        0.0946
     14 S          63.5102   90.5719   10.9831 S.3     1  UNL1       -0.1298
     15 C          63.9900   91.9494   11.3331 C.3     1  UNL1        0.0780
     16 C          65.4376   92.1813   11.6506 C.3     1  UNL1        0.0899
     17 C          67.3698   91.7662   13.3371 C.2     1  UNL1        0.4014
     18 O          68.3287   91.5951   12.1964 O.2     1  UNL1       -0.2264
     19 N          65.9242   92.0592   13.0642 N.am    1  UNL1       -0.2711
     20 H          65.2949   92.1715   13.8129 H       1  UNL1        0.1527
     21 O          67.8564   91.6441   14.7507 O.3     1  UNL1       -0.4419
     22 C          67.0610   92.9549   16.2168 C.3     1  UNL1        0.0437
     23 C          68.3621   92.8552   15.4770 C.3     1  UNL1        0.1378
     24 C          69.6632   92.7556   14.7373 C.3     1  UNL1        0.0437
     25 C          68.8678   94.0663   16.2033 C.3     1  UNL1        0.0437
     26 C          66.3985   92.5351   10.5545 C.3     1  UNL1        0.0469
     27 C          66.6357   93.9733   10.2005 C.ar    1  UNL1       -0.0205
     28 C          66.1395   95.0606   11.1069 C.ar    1  UNL1       -0.0042
     29 C          66.3767   96.4987   10.7529 C.ar    1  UNL1       -0.0003
     30 C          67.1102   96.8496    9.4924 C.ar    1  UNL1       -0.0000
     31 C          67.6064   95.7624    8.5859 C.ar    1  UNL1       -0.0003
     32 C          67.3692   94.3242    8.9400 C.ar    1  UNL1       -0.0042
     33 C          61.3393   89.3787   11.7662 C.3     1  UNL1        0.0463
     34 C          60.9781   88.4724   10.6268 C.ar    1  UNL1       -0.0208
     35 C          60.2102   89.0095    9.4556 C.ar    1  UNL1       -0.0042
     36 C          59.8490   88.1032    8.3163 C.ar    1  UNL1       -0.0003
     37 C          60.2558   86.6598    8.3481 C.ar    1  UNL1       -0.0000
     38 C          61.0238   86.1227    9.5193 C.ar    1  UNL1       -0.0003
     39 C          61.3849   87.0290   10.6586 C.ar    1  UNL1       -0.0042
@<TRIPOS>BOND
     1    22    23    1
     2    23    24    1
     3    23    25    1
     4    23    21    1
     5    21    17    1
     6    17    18    2
     7    17    19   am
     8    19    16    1
     9    16    15    1
    10    15    14    1
    11    14     1    1
    12     1    33    1
    13    33    34    1
    14    34    35   ar
    15    35    36   ar
    16    36    37   ar
    17    37    38   ar
    18    38    39   ar
    19     1     2    1
    20     2     3    2
    21     2     4   am
    22     4     6    1
    23     6     7    1
    24     7     8    1
    25     8     9   ar
    26     9    10   ar
    27    10    11   ar
    28    11    12   ar
    29    12    13   ar
    30    16    26    1
    31    26    27    1
    32    27    28   ar
    33    28    29   ar
    34    29    30   ar
    35    30    31   ar
    36    31    32   ar
    37    39    34   ar
    38    13     8   ar
    39    32    27   ar
    40    19    20    1
    41     4     5    1
@<TRIPOS>MOLECULE
*****
 39 41 0 0 0
SMALL
GASTEIGER

@<TRIPOS>ATOM
      1 C          63.4423   89.0575   12.7085 C.3     1  UNL1        0.1281
      2 C          62.7942   87.9974   11.8681 C.2     1  UNL1        0.2325
      3 O          62.0703   88.3760   10.6101 O.2     1  UNL1       -0.2742
      4 N          62.8700   86.5587   12.2858 N.am    1  UNL1       -0.3033
      5 H          63.3452   86.3102   13.1114 H       1  UNL1        0.1495
      6 C          62.2219   85.4987   11.4454 C.3     1  UNL1        0.0941
      7 C          62.9424   84.2110   11.1754 C.3     1  UNL1        0.0492
      8 C          62.8263   83.0697   12.1418 C.ar    1  UNL1       -0.0013
      9 C          62.8180   81.6573   11.6369 C.ar    1  UNL1       -0.0011
     10 C          62.7019   80.5160   12.6033 C.ar    1  UNL1        0.0204
     11 C          62.5940   80.7871   14.0747 C.ar    1  UNL1        0.0989
     12 N          62.6023   82.1996   14.5796 N.ar    1  UNL1       -0.2426
     13 C          62.7184   83.3409   13.6132 C.ar    1  UNL1        0.0946
     14 S          63.1021   90.5017   12.4878 S.3     1  UNL1       -0.1298
     15 C          63.9980   91.5748   13.0318 C.3     1  UNL1        0.0780
     16 C          65.1440   92.0837   12.2086 C.3     1  UNL1        0.0899
     17 C          67.0317   93.1445   13.6444 C.2     1  UNL1        0.4014
     18 O          66.1286   94.2935   13.9826 O.2     1  UNL1       -0.2264
     19 N          66.5394   92.0396   12.7573 N.am    1  UNL1       -0.2711
     20 H          67.1321   91.2855   12.5353 H       1  UNL1        0.1527
     21 O          68.4270   93.1005   14.1931 O.3     1  UNL1       -0.4419
     22 C          69.3860   93.9189   15.8991 C.3     1  UNL1        0.0437
     23 C          68.6654   92.6378   15.5999 C.3     1  UNL1        0.1378
     24 C          67.9448   91.3568   15.3007 C.3     1  UNL1        0.0437
     25 C          68.9038   92.1752   17.0067 C.3     1  UNL1        0.0437
     26 C          64.8948   92.6366   10.8367 C.3     1  UNL1        0.0469
     27 C          65.7989   93.6957   10.2793 C.ar    1  UNL1       -0.0205
     28 C          65.4296   95.1434   10.4126 C.ar    1  UNL1       -0.0042
     29 C          66.3338   96.2025    9.8552 C.ar    1  UNL1       -0.0003
     30 C          67.6073   95.8139    9.1644 C.ar    1  UNL1       -0.0000
     31 C          67.9766   94.3663    9.0310 C.ar    1  UNL1       -0.0003
     32 C          67.0724   93.3071    9.5885 C.ar    1  UNL1       -0.0042
     33 C          64.4306   88.6735   13.7695 C.3     1  UNL1        0.0463
     34 C          63.9613   87.9892   15.0192 C.ar    1  UNL1       -0.0208
     35 C          63.3227   88.7875   16.1168 C.ar    1  UNL1       -0.0042
     36 C          62.8535   88.1032   17.3664 C.ar    1  UNL1       -0.0003
     37 C          63.0229   86.6206   17.5184 C.ar    1  UNL1       -0.0000
     38 C          63.6615   85.8223   16.4208 C.ar    1  UNL1       -0.0003
     39 C          64.1307   86.5066   15.1712 C.ar    1  UNL1       -0.0042
@<TRIPOS>BOND
     1    22    23    1
     2    23    24    1
     3    23    25    1
     4    23    21    1
     5    21    17    1
     6    17    18    2
     7    17    19   am
     8    19    16    1
     9    16    15    1
    10    15    14    1
    11    14     1    1
    12     1    33    1
    13    33    34    1
    14    34    35   ar
    15    35    36   ar
    16    36    37   ar
    17    37    38   ar
    18    38    39   ar
    19     1     2    1
    20     2     3    2
    21     2     4   am
    22     4     6    1
    23     6     7    1
    24     7     8    1
    25     8     9   ar
    26     9    10   ar
    27    10    11   ar
    28    11    12   ar
    29    12    13   ar
    30    16    26    1
    31    26    27    1
    32    27    28   ar
    33    28    29   ar
    34    29    30   ar
    35    30    31   ar
    36    31    32   ar
    37    39    34   ar
    38    13     8   ar
    39    32    27   ar
    40    19    20    1
    41     4     5    1
@<TRIPOS>MOLECULE
*****
 39 41 0 0 0
SMALL
GASTEIGER

@<TRIPOS>ATOM
      1 C          63.8917   89.5341   13.5393 C.3     1  UNL1        0.1281
      2 C          64.4176   90.8822   13.9345 C.2     1  UNL1        0.2325
      3 O          63.8030   91.6183   15.0879 O.2     1  UNL1       -0.2742
      4 N          65.5580   91.4942   13.1763 N.am    1  UNL1       -0.3033
      5 H          65.9613   91.0111   12.4192 H       1  UNL1        0.1495
      6 C          66.0838   92.8422   13.5715 C.3     1  UNL1        0.0941
      7 C          66.1062   93.9609   12.5724 C.3     1  UNL1        0.0492
      8 C          66.8149   93.7826   11.2625 C.ar    1  UNL1       -0.0013
      9 C          67.4277   92.4582   10.9156 C.ar    1  UNL1       -0.0011
     10 C          68.1365   92.2798    9.6057 C.ar    1  UNL1        0.0204
     11 C          68.2323   93.4259    8.6426 C.ar    1  UNL1        0.0989
     12 N          67.6194   94.7503    8.9896 N.ar    1  UNL1       -0.2426
     13 C          66.9107   94.9287   10.2995 C.ar    1  UNL1        0.0946
     14 S          62.7393   89.4290   12.5848 S.3     1  UNL1       -0.1298
     15 C          62.7823   88.4330   11.4640 C.3     1  UNL1        0.0780
     16 C          62.0495   87.1302   11.5898 C.3     1  UNL1        0.0899
     17 C          63.1681   84.8073   11.2685 C.2     1  UNL1        0.4014
     18 O          62.8981   84.8812    9.7948 O.2     1  UNL1       -0.2264
     19 N          62.7438   85.9318   12.1660 N.am    1  UNL1       -0.2711
     20 H          62.9209   85.8834   13.1332 H       1  UNL1        0.1527
     21 O          63.8623   83.6090   11.8447 O.3     1  UNL1       -0.4419
     22 C          62.8515   83.0559   13.6258 C.3     1  UNL1        0.0437
     23 C          63.0628   82.4185   12.2845 C.3     1  UNL1        0.1378
     24 C          63.2740   81.7811   10.9432 C.3     1  UNL1        0.0437
     25 C          62.2632   81.2280   12.7244 C.3     1  UNL1        0.0437
     26 C          60.6226   87.0258   11.1394 C.3     1  UNL1        0.0469
     27 C          60.2261   87.5257    9.7819 C.ar    1  UNL1       -0.0205
     28 C          59.8276   86.5533    8.7115 C.ar    1  UNL1       -0.0042
     29 C          59.4312   87.0532    7.3539 C.ar    1  UNL1       -0.0003
     30 C          59.4331   88.5254    7.0668 C.ar    1  UNL1       -0.0000
     31 C          59.8316   89.4978    8.1371 C.ar    1  UNL1       -0.0003
     32 C          60.2281   88.9979    9.4947 C.ar    1  UNL1       -0.0042
     33 C          64.5182   88.2913   14.0985 C.3     1  UNL1        0.0463
     34 C          63.9285   87.6346   15.3115 C.ar    1  UNL1       -0.0208
     35 C          63.2876   88.4701   16.3797 C.ar    1  UNL1       -0.0042
     36 C          62.6980   87.8135   17.5926 C.ar    1  UNL1       -0.0003
     37 C          62.7494   86.3214   17.7373 C.ar    1  UNL1       -0.0000
     38 C          63.3904   85.4859   16.6691 C.ar    1  UNL1       -0.0003
     39 C          63.9799   86.1425   15.4562 C.ar    1  UNL1       -0.0042
@<TRIPOS>BOND
     1    22    23    1
     2    23    24    1
     3    23    25    1
     4    23    21    1
     5    21    17    1
     6    17    18    2
     7    17    19   am
     8    19    16    1
     9    16    15    1
    10    15    14    1
    11    14     1    1
    12     1    33    1
    13    33    34    1
    14    34    35   ar
    15    35    36   ar
    16    36    37   ar
    17    37    38   ar
    18    38    39   ar
    19     1     2    1
    20     2     3    2
    21     2     4   am
    22     4     6    1
    23     6     7    1
    24     7     8    1
    25     8     9   ar
    26     9    10   ar
    27    10    11   ar
    28    11    12   ar
    29    12    13   ar
    30    16    26    1
    31    26    27    1
    32    27    28   ar
    33    28    29   ar
    34    29    30   ar
    35    30    31   ar
    36    31    32   ar
    37    39    34   ar
    38    13     8   ar
    39    32    27   ar
    40    19    20    1
    41     4     5    1
@<TRIPOS>MOLECULE
*****
 39 41 0 0 0
SMALL
GASTEIGER

@<TRIPOS>ATOM
      1 C          61.9440   87.9715   11.3392 C.3     1  UNL1        0.1281
      2 C          62.2997   86.5145   11.3691 C.2     1  UNL1        0.2325
      3 O          62.2885   85.7663   12.6691 O.2     1  UNL1       -0.2742
      4 N          62.6666   85.8058   10.0990 N.am    1  UNL1       -0.3033
      5 H          62.6740   86.2969    9.2458 H       1  UNL1        0.1495
      6 C          63.0222   84.3489   10.1290 C.3     1  UNL1        0.0941
      7 C          64.0323   83.8436   11.1162 C.3     1  UNL1        0.0492
      8 C          63.6609   82.7545   12.0784 C.ar    1  UNL1       -0.0013
      9 C          62.9829   81.5127   11.5802 C.ar    1  UNL1       -0.0011
     10 C          62.6115   80.4235   12.5424 C.ar    1  UNL1        0.0204
     11 C          62.9180   80.5763   14.0028 C.ar    1  UNL1        0.0989
     12 N          63.5961   81.8181   14.5010 N.ar    1  UNL1       -0.2426
     13 C          63.9675   82.9072   13.5388 C.ar    1  UNL1        0.0946
     14 S          62.9820   89.0037   11.6665 S.3     1  UNL1       -0.1298
     15 C          62.6979   90.0506   12.7026 C.3     1  UNL1        0.0780
     16 C          63.8282   90.6829   13.4594 C.3     1  UNL1        0.0899
     17 C          66.1643   91.8133   13.3353 C.2     1  UNL1        0.4014
     18 O          66.5417   91.1763   14.6400 O.2     1  UNL1       -0.2264
     19 N          64.8075   91.5665   12.7451 N.am    1  UNL1       -0.2711
     20 H          64.5598   91.9846   11.8888 H       1  UNL1        0.1527
     21 O          67.1435   92.6968   12.6211 O.3     1  UNL1       -0.4419
     22 C          66.1443   94.4974   12.1116 C.3     1  UNL1        0.0437
     23 C          66.7521   93.3658   11.3369 C.3     1  UNL1        0.1378
     24 C          67.3599   92.2343   10.5621 C.3     1  UNL1        0.0437
     25 C          66.3606   94.0348   10.0526 C.3     1  UNL1        0.0437
     26 C          63.9792   90.4316   14.9304 C.3     1  UNL1        0.0469
     27 C          63.8147   89.0436   15.4749 C.ar    1  UNL1       -0.0205
     28 C          64.4396   87.8800   14.7637 C.ar    1  UNL1       -0.0042
     29 C          64.2752   86.4921   15.3082 C.ar    1  UNL1       -0.0003
     30 C          63.4858   86.2676   16.5637 C.ar    1  UNL1       -0.0000
     31 C          62.8609   87.4311   17.2749 C.ar    1  UNL1       -0.0003
     32 C          63.0254   88.8191   16.7305 C.ar    1  UNL1       -0.0042
     33 C          60.5505   88.3961   10.9820 C.3     1  UNL1        0.0463
     34 C          60.0714   88.2812    9.5651 C.ar    1  UNL1       -0.0208
     35 C          59.5113   86.9824    9.0658 C.ar    1  UNL1       -0.0042
     36 C          59.0322   86.8676    7.6490 C.ar    1  UNL1       -0.0003
     37 C          59.1132   88.0516    6.7316 C.ar    1  UNL1       -0.0000
     38 C          59.6732   89.3504    7.2310 C.ar    1  UNL1       -0.0003
     39 C          60.1523   89.4652    8.6477 C.ar    1  UNL1       -0.0042
@<TRIPOS>BOND
     1    22    23    1
     2    23    24    1
     3    23    25    1
     4    23    21    1
     5    21    17    1
     6    17    18    2
     7    17    19   am
     8    19    16    1
     9    16    15    1
    10    15    14    1
    11    14     1    1
    12     1    33    1
    13    33    34    1
    14    34    35   ar
    15    35    36   ar
    16    36    37   ar
    17    37    38   ar
    18    38    39   ar
    19     1     2    1
    20     2     3    2
    21     2     4   am
    22     4     6    1
    23     6     7    1
    24     7     8    1
    25     8     9   ar
    26     9    10   ar
    27    10    11   ar
    28    11    12   ar
    29    12    13   ar
    30    16    26    1
    31    26    27    1
    32    27    28   ar
    33    28    29   ar
    34    29    30   ar
    35    30    31   ar
    36    31    32   ar
    37    39    34   ar
    38    13     8   ar
    39    32    27   ar
    40    19    20    1
    41     4     5    1
