@<TRIPOS>MOLECULE
*****
 32 35 0 0 0
SMALL
GASTEIGER

@<TRIPOS>ATOM
      1 C          60.3584   87.7204    9.2652 C.ar    1  UNL1        0.1662
      2 C          61.2058   87.1847   10.3810 C.ar    1  UNL1        0.0455
      3 C          62.0625   88.1164   11.1859 C.ar    1  UNL1        0.0771
      4 C          62.9099   87.5807   12.3017 C.ar    1  UNL1        0.2646
      5 O          62.9006   86.1133   12.6125 O.2     1  UNL1       -0.2668
      6 N          63.7667   88.5124   13.1066 N.ar    1  UNL1       -0.2644
      7 C          63.7760   89.9798   12.7958 C.ar    1  UNL1        0.2037
      8 N          62.9286   90.5155   11.6801 N.ar    1  UNL1       -0.2147
      9 C          62.0718   89.5838   10.8751 C.ar    1  UNL1        0.0911
     10 C          61.2244   90.1195    9.7594 C.ar    1  UNL1        0.0521
     11 C          60.3677   89.1878    8.9544 C.ar    1  UNL1        0.1753
     12 F          59.5203   89.7235    7.8386 F       1  UNL1       -0.2009
     13 N          64.6327   90.9116   13.6007 N.pl3   1  UNL1       -0.2781
     14 C          65.9221   91.4250   13.0317 C.3     1  UNL1        0.0937
     15 C          66.7788   92.3567   13.8367 C.3     1  UNL1        0.0229
     16 C          66.3461   92.7750   15.2106 C.3     1  UNL1        0.0190
     17 C          65.0567   92.2616   15.7797 C.3     1  UNL1        0.0710
     18 N          64.6240   92.6799   17.1536 N.3     1  UNL1       -0.3208
     19 C          64.1999   91.3299   14.9747 C.3     1  UNL1        0.1089
     20 H          65.3203   93.3096   17.5524 H       1  UNL1        0.1189
     21 H          64.5319   91.8553   17.7469 H       1  UNL1        0.1189
     22 C          60.1294   85.8835    7.4422 C.3     1  UNL1        0.2526
     23 O          59.5016   86.7887    8.4603 O.3     1  UNL1       -0.4692
     24 C          64.6141   87.9767   14.2224 C.3     1  UNL1        0.1391
     25 C          63.9691   87.4824   15.4833 C.ar    1  UNL1        0.0102
     26 C          63.3416   88.4561   16.4363 C.ar    1  UNL1       -0.0017
     27 C          62.6967   87.9618   17.6971 C.ar    1  UNL1       -0.0002
     28 C          62.6791   86.4939   18.0049 C.ar    1  UNL1        0.0007
     29 C          63.3066   85.5202   17.0518 C.ar    1  UNL1        0.0100
     30 C          63.9515   86.0144   15.7910 C.ar    1  UNL1        0.0663
     31 C          64.5790   85.0408   14.8380 C.1     1  UNL1        0.1002
     32 N          65.2064   84.0671   13.8850 N.1     1  UNL1       -0.1908
@<TRIPOS>BOND
     1    22    23    1
     2    23     1    1
     3     1     2   ar
     4     2     3   ar
     5     3     4   ar
     6     4     5    2
     7     4     6   ar
     8     6    24    1
     9    24    25    1
    10    25    26   ar
    11    26    27   ar
    12    27    28   ar
    13    28    29   ar
    14    29    30   ar
    15    30    31    1
    16    31    32    3
    17     6     7   ar
    18     7    13    1
    19    13    14    1
    20    14    15    1
    21    15    16    1
    22    16    17    1
    23    17    18    1
    24    17    19    1
    25     7     8   ar
    26     8     9   ar
    27     9    10   ar
    28    10    11   ar
    29    11    12    1
    30    11     1   ar
    31     9     3   ar
    32    30    25   ar
    33    19    13    1
    34    18    20    1
    35    18    21    1
@<TRIPOS>MOLECULE
*****
 32 35 0 0 0
SMALL
GASTEIGER

@<TRIPOS>ATOM
      1 C          61.4828   87.6781   10.3626 C.ar    1  UNL1        0.1662
      2 C          62.0337   89.0534   10.1282 C.ar    1  UNL1        0.0455
      3 C          62.9742   89.6645   11.1241 C.ar    1  UNL1        0.0771
      4 C          63.5251   91.0399   10.8896 C.ar    1  UNL1        0.2646
      5 O          63.1353   91.8042    9.6592 O.2     1  UNL1       -0.2668
      6 N          64.4656   91.6510   11.8856 N.ar    1  UNL1       -0.2644
      7 C          64.8554   90.8866   13.1161 C.ar    1  UNL1        0.2037
      8 N          64.3045   89.5113   13.3505 N.ar    1  UNL1       -0.2147
      9 C          63.3640   88.9002   12.3545 C.ar    1  UNL1        0.0911
     10 C          62.8131   87.5249   12.5890 C.ar    1  UNL1        0.0521
     11 C          61.8726   86.9139   11.5930 C.ar    1  UNL1        0.1753
     12 F          61.3217   85.5384   11.8275 F       1  UNL1       -0.2009
     13 N          65.7959   91.4977   14.1120 N.pl3   1  UNL1       -0.2781
     14 C          65.2812   91.9640   15.4415 C.3     1  UNL1        0.0937
     15 C          66.2218   92.5751   16.4375 C.3     1  UNL1        0.0229
     16 C          67.6770   92.7198   16.1040 C.3     1  UNL1        0.0190
     17 C          68.1918   92.2535   14.7744 C.3     1  UNL1        0.0710
     18 N          69.6470   92.3982   14.4409 N.3     1  UNL1       -0.3208
     19 C          67.2512   91.6424   13.7784 C.3     1  UNL1        0.1089
     20 H          70.1345   92.8298   15.2261 H       1  UNL1        0.1189
     21 H          69.7493   92.9852   13.6130 H       1  UNL1        0.1189
     22 C          59.7771   87.9448    8.4211 C.3     1  UNL1        0.2526
     23 O          60.5423   87.0671    9.3666 O.3     1  UNL1       -0.4692
     24 C          65.0165   93.0263   11.6512 C.3     1  UNL1        0.1391
     25 C          66.2078   93.2152   10.7594 C.ar    1  UNL1        0.0102
     26 C          67.1321   92.0651   10.4890 C.ar    1  UNL1       -0.0017
     27 C          68.3233   92.2539    9.5973 C.ar    1  UNL1       -0.0002
     28 C          68.5903   93.5928    8.9760 C.ar    1  UNL1        0.0007
     29 C          67.6660   94.7428    9.2463 C.ar    1  UNL1        0.0100
     30 C          66.4748   94.5540   10.1381 C.ar    1  UNL1        0.0663
     31 C          65.5505   95.7041   10.4084 C.1     1  UNL1        0.1002
     32 N          64.6262   96.8541   10.6788 N.1     1  UNL1       -0.1908
@<TRIPOS>BOND
     1    22    23    1
     2    23     1    1
     3     1     2   ar
     4     2     3   ar
     5     3     4   ar
     6     4     5    2
     7     4     6   ar
     8     6    24    1
     9    24    25    1
    10    25    26   ar
    11    26    27   ar
    12    27    28   ar
    13    28    29   ar
    14    29    30   ar
    15    30    31    1
    16    31    32    3
    17     6     7   ar
    18     7    13    1
    19    13    14    1
    20    14    15    1
    21    15    16    1
    22    16    17    1
    23    17    18    1
    24    17    19    1
    25     7     8   ar
    26     8     9   ar
    27     9    10   ar
    28    10    11   ar
    29    11    12    1
    30    11     1   ar
    31     9     3   ar
    32    30    25   ar
    33    19    13    1
    34    18    20    1
    35    18    21    1
@<TRIPOS>MOLECULE
*****
 32 35 0 0 0
SMALL
GASTEIGER

@<TRIPOS>ATOM
      1 C          60.3741   87.7580    9.3609 C.ar    1  UNL1        0.1662
      2 C          61.2161   87.4353   10.5595 C.ar    1  UNL1        0.0455
      3 C          62.1111   88.4834   11.1516 C.ar    1  UNL1        0.0771
      4 C          62.9531   88.1606   12.3504 C.ar    1  UNL1        0.2646
      5 O          62.9001   86.7898   12.9570 O.2     1  UNL1       -0.2668
      6 N          63.8480   89.2087   12.9424 N.ar    1  UNL1       -0.2644
      7 C          63.9010   90.5796   12.3357 C.ar    1  UNL1        0.2037
      8 N          63.0590   90.9023   11.1370 N.ar    1  UNL1       -0.2147
      9 C          62.1641   89.8542   10.5450 C.ar    1  UNL1        0.0911
     10 C          61.3221   90.1769    9.3463 C.ar    1  UNL1        0.0521
     11 C          60.4271   89.1288    8.7542 C.ar    1  UNL1        0.1753
     12 F          59.5851   89.4515    7.5555 F       1  UNL1       -0.2009
     13 N          64.7960   91.6277   12.9277 N.pl3   1  UNL1       -0.2781
     14 C          65.4284   92.6607   12.0431 C.3     1  UNL1        0.0937
     15 C          66.3234   93.7088   12.6351 C.3     1  UNL1        0.0229
     16 C          66.5859   93.7239   14.1119 C.3     1  UNL1        0.0190
     17 C          65.9534   92.6908   14.9966 C.3     1  UNL1        0.0710
     18 N          66.2159   92.7058   16.4734 N.3     1  UNL1       -0.3208
     19 C          65.0584   91.6427   14.4046 C.3     1  UNL1        0.1089
     20 H          66.8407   93.4796   16.6998 H       1  UNL1        0.1189
     21 H          66.6504   91.8256   16.7505 H       1  UNL1        0.1189
     22 C          59.8872   85.9971    7.5137 C.3     1  UNL1        0.2526
     23 O          59.4792   86.7099    8.7688 O.3     1  UNL1       -0.4692
     24 C          64.6900   88.8860   14.1411 C.3     1  UNL1        0.1391
     25 C          64.1551   87.9820   15.2120 C.ar    1  UNL1        0.0102
     26 C          64.3224   86.4962   15.0917 C.ar    1  UNL1       -0.0017
     27 C          63.7876   85.5921   16.1625 C.ar    1  UNL1       -0.0002
     28 C          63.0855   86.1739   17.3535 C.ar    1  UNL1        0.0007
     29 C          62.9182   87.6597   17.4738 C.ar    1  UNL1        0.0100
     30 C          63.4531   88.5637   16.4030 C.ar    1  UNL1        0.0663
     31 C          63.2858   90.0495   16.5232 C.1     1  UNL1        0.1002
     32 N          63.1185   91.5353   16.6435 N.1     1  UNL1       -0.1908
@<TRIPOS>BOND
     1    22    23    1
     2    23     1    1
     3     1     2   ar
     4     2     3   ar
     5     3     4   ar
     6     4     5    2
     7     4     6   ar
     8     6    24    1
     9    24    25    1
    10    25    26   ar
    11    26    27   ar
    12    27    28   ar
    13    28    29   ar
    14    29    30   ar
    15    30    31    1
    16    31    32    3
    17     6     7   ar
    18     7    13    1
    19    13    14    1
    20    14    15    1
    21    15    16    1
    22    16    17    1
    23    17    18    1
    24    17    19    1
    25     7     8   ar
    26     8     9   ar
    27     9    10   ar
    28    10    11   ar
    29    11    12    1
    30    11     1   ar
    31     9     3   ar
    32    30    25   ar
    33    19    13    1
    34    18    20    1
    35    18    21    1
@<TRIPOS>MOLECULE
*****
 32 35 0 0 0
SMALL
GASTEIGER

@<TRIPOS>ATOM
      1 C          60.5397   87.5611    9.1498 C.ar    1  UNL1        0.1662
      2 C          61.3246   86.9703   10.2834 C.ar    1  UNL1        0.0455
      3 C          62.0844   87.8658   11.2165 C.ar    1  UNL1        0.0771
      4 C          62.8693   87.2749   12.3500 C.ar    1  UNL1        0.2646
      5 O          62.8943   85.7886   12.5505 O.2     1  UNL1       -0.2668
      6 N          63.6291   88.1705   13.2832 N.ar    1  UNL1       -0.2644
      7 C          63.6041   89.6568   13.0827 C.ar    1  UNL1        0.2037
      8 N          62.8192   90.2476   11.9492 N.ar    1  UNL1       -0.2147
      9 C          62.0594   89.3521   11.0161 C.ar    1  UNL1        0.0911
     10 C          61.2745   89.9429    9.8825 C.ar    1  UNL1        0.0521
     11 C          60.5147   89.0474    8.9494 C.ar    1  UNL1        0.1753
     12 F          59.7298   89.6382    7.8158 F       1  UNL1       -0.2009
     13 N          64.3639   90.5524   14.0158 N.pl3   1  UNL1       -0.2781
     14 C          63.8289   90.8318   15.3890 C.3     1  UNL1        0.0937
     15 C          64.5887   91.7273   16.3221 C.3     1  UNL1        0.0229
     16 C          65.8836   92.3434   15.8820 C.3     1  UNL1        0.0190
     17 C          66.4187   92.0640   14.5088 C.3     1  UNL1        0.0710
     18 N          67.7136   92.6801   14.0687 N.3     1  UNL1       -0.3208
     19 C          65.6589   91.1685   13.5757 C.3     1  UNL1        0.1089
     20 H          68.0903   93.2546   14.8226 H       1  UNL1        0.1189
     21 H          67.5513   93.2617   13.2466 H       1  UNL1        0.1189
     22 C          60.5056   85.6185    7.4250 C.3     1  UNL1        0.2526
     23 O          59.7799   86.6655    8.2167 O.3     1  UNL1       -0.4692
     24 C          64.4140   87.5797   14.4167 C.3     1  UNL1        0.1391
     25 C          64.3608   86.1032   14.6765 C.ar    1  UNL1        0.0102
     26 C          65.2034   85.1675   13.8614 C.ar    1  UNL1       -0.0017
     27 C          65.1502   83.6911   14.1212 C.ar    1  UNL1       -0.0002
     28 C          64.2545   83.1506   15.1961 C.ar    1  UNL1        0.0007
     29 C          63.4119   84.0863   16.0111 C.ar    1  UNL1        0.0100
     30 C          63.4651   85.5627   15.7514 C.ar    1  UNL1        0.0663
     31 C          62.6225   86.4984   16.5665 C.1     1  UNL1        0.1002
     32 N          61.7799   87.4342   17.3815 N.1     1  UNL1       -0.1908
@<TRIPOS>BOND
     1    22    23    1
     2    23     1    1
     3     1     2   ar
     4     2     3   ar
     5     3     4   ar
     6     4     5    2
     7     4     6   ar
     8     6    24    1
     9    24    25    1
    10    25    26   ar
    11    26    27   ar
    12    27    28   ar
    13    28    29   ar
    14    29    30   ar
    15    30    31    1
    16    31    32    3
    17     6     7   ar
    18     7    13    1
    19    13    14    1
    20    14    15    1
    21    15    16    1
    22    16    17    1
    23    17    18    1
    24    17    19    1
    25     7     8   ar
    26     8     9   ar
    27     9    10   ar
    28    10    11   ar
    29    11    12    1
    30    11     1   ar
    31     9     3   ar
    32    30    25   ar
    33    19    13    1
    34    18    20    1
    35    18    21    1
@<TRIPOS>MOLECULE
*****
 32 35 0 0 0
SMALL
GASTEIGER

@<TRIPOS>ATOM
      1 C          60.2275   88.8134    8.6059 C.ar    1  UNL1        0.1662
      2 C          61.1964   88.8718    9.7495 C.ar    1  UNL1        0.0455
      3 C          61.6645   87.6045   10.4013 C.ar    1  UNL1        0.0771
      4 C          62.6334   87.6630   11.5450 C.ar    1  UNL1        0.2646
      5 O          63.1342   88.9886   12.0367 O.2     1  UNL1       -0.2668
      6 N          63.1015   86.3957   12.1968 N.ar    1  UNL1       -0.2644
      7 C          62.6007   85.0700   11.7051 C.ar    1  UNL1        0.2037
      8 N          61.6318   85.0116   10.5615 N.ar    1  UNL1       -0.2147
      9 C          61.1637   86.2789    9.9097 C.ar    1  UNL1        0.0911
     10 C          60.1948   86.2205    8.7661 C.ar    1  UNL1        0.0521
     11 C          59.7267   87.4877    8.1142 C.ar    1  UNL1        0.1753
     12 F          58.7577   87.4293    6.9706 F       1  UNL1       -0.2009
     13 N          63.0688   83.8027   12.3570 N.pl3   1  UNL1       -0.2781
     14 C          64.4422   83.2736   12.0679 C.3     1  UNL1        0.0937
     15 C          64.9103   82.0064   12.7198 C.3     1  UNL1        0.0229
     16 C          64.0049   81.2682   13.6607 C.3     1  UNL1        0.0190
     17 C          62.6314   81.7973   13.9498 C.3     1  UNL1        0.0710
     18 N          61.7260   81.0592   14.8908 N.3     1  UNL1       -0.3208
     19 C          62.1633   83.0646   13.2980 C.3     1  UNL1        0.1089
     20 H          62.2025   80.2270   15.2383 H       1  UNL1        0.1189
     21 H          60.8760   80.7838   14.3989 H       1  UNL1        0.1189
     22 C          59.4967   90.1119    6.4776 C.3     1  UNL1        0.2526
     23 O          59.7594   90.0806    7.9540 O.3     1  UNL1       -0.4692
     24 C          64.0704   86.4541   13.3404 C.3     1  UNL1        0.1391
     25 C          63.5632   86.5271   14.7502 C.ar    1  UNL1        0.0102
     26 C          62.9300   85.3234   15.3828 C.ar    1  UNL1       -0.0017
     27 C          62.4228   85.3964   16.7925 C.ar    1  UNL1       -0.0002
     28 C          62.5488   86.6732   17.5697 C.ar    1  UNL1        0.0007
     29 C          63.1820   87.8769   16.9371 C.ar    1  UNL1        0.0100
     30 C          63.6892   87.8039   15.5274 C.ar    1  UNL1        0.0663
     31 C          64.3225   89.0076   14.8949 C.1     1  UNL1        0.1002
     32 N          64.9557   90.2113   14.2623 N.1     1  UNL1       -0.1908
@<TRIPOS>BOND
     1    22    23    1
     2    23     1    1
     3     1     2   ar
     4     2     3   ar
     5     3     4   ar
     6     4     5    2
     7     4     6   ar
     8     6    24    1
     9    24    25    1
    10    25    26   ar
    11    26    27   ar
    12    27    28   ar
    13    28    29   ar
    14    29    30   ar
    15    30    31    1
    16    31    32    3
    17     6     7   ar
    18     7    13    1
    19    13    14    1
    20    14    15    1
    21    15    16    1
    22    16    17    1
    23    17    18    1
    24    17    19    1
    25     7     8   ar
    26     8     9   ar
    27     9    10   ar
    28    10    11   ar
    29    11    12    1
    30    11     1   ar
    31     9     3   ar
    32    30    25   ar
    33    19    13    1
    34    18    20    1
    35    18    21    1
@<TRIPOS>MOLECULE
*****
 32 35 0 0 0
SMALL
GASTEIGER

@<TRIPOS>ATOM
      1 C          60.2105   88.9173    8.6211 C.ar    1  UNL1        0.1662
      2 C          61.2355   89.2185    9.6740 C.ar    1  UNL1        0.0455
      3 C          61.7321   88.1244   10.5720 C.ar    1  UNL1        0.0771
      4 C          62.7571   88.4257   11.6250 C.ar    1  UNL1        0.2646
      5 O          63.2854   89.8209   11.7799 O.2     1  UNL1       -0.2668
      6 N          63.2536   87.3316   12.5230 N.ar    1  UNL1       -0.2644
      7 C          62.7252   85.9363   12.3681 C.ar    1  UNL1        0.2037
      8 N          61.7003   85.6351   11.3151 N.ar    1  UNL1       -0.2147
      9 C          61.2037   86.7292   10.4171 C.ar    1  UNL1        0.0911
     10 C          60.1788   86.4280    9.3642 C.ar    1  UNL1        0.0521
     11 C          59.6822   87.5220    8.4662 C.ar    1  UNL1        0.1753
     12 F          58.6572   87.2208    7.4132 F       1  UNL1       -0.2009
     13 N          63.2218   84.8423   13.2661 N.pl3   1  UNL1       -0.2781
     14 C          64.5899   84.9340   13.8741 C.3     1  UNL1        0.0937
     15 C          65.0865   83.8400   14.7722 C.3     1  UNL1        0.0229
     16 C          64.2150   82.6541   15.0621 C.3     1  UNL1        0.0190
     17 C          62.8468   82.5623   14.4541 C.3     1  UNL1        0.0710
     18 N          61.9752   81.3764   14.7440 N.3     1  UNL1       -0.3208
     19 C          62.3502   83.6563   13.5561 C.3     1  UNL1        0.1089
     20 H          62.4679   80.7367   15.3672 H       1  UNL1        0.1189
     21 H          61.7521   80.8971   13.8718 H       1  UNL1        0.1189
     22 C          59.4521   89.7306    6.2731 C.3     1  UNL1        0.2526
     23 O          59.7140   90.0113    7.7231 O.3     1  UNL1       -0.4692
     24 C          64.2786   87.6328   13.5760 C.3     1  UNL1        0.1391
     25 C          64.0713   88.7821   14.5175 C.ar    1  UNL1        0.0102
     26 C          64.4895   90.1655   14.1158 C.ar    1  UNL1       -0.0017
     27 C          64.2822   91.3147   15.0572 C.ar    1  UNL1       -0.0002
     28 C          63.6568   91.0805   16.4003 C.ar    1  UNL1        0.0007
     29 C          63.2386   89.6971   16.8020 C.ar    1  UNL1        0.0100
     30 C          63.4458   88.5479   15.8606 C.ar    1  UNL1        0.0663
     31 C          63.0276   87.1645   16.2622 C.1     1  UNL1        0.1002
     32 N          62.6094   85.7811   16.6639 N.1     1  UNL1       -0.1908
@<TRIPOS>BOND
     1    22    23    1
     2    23     1    1
     3     1     2   ar
     4     2     3   ar
     5     3     4   ar
     6     4     5    2
     7     4     6   ar
     8     6    24    1
     9    24    25    1
    10    25    26   ar
    11    26    27   ar
    12    27    28   ar
    13    28    29   ar
    14    29    30   ar
    15    30    31    1
    16    31    32    3
    17     6     7   ar
    18     7    13    1
    19    13    14    1
    20    14    15    1
    21    15    16    1
    22    16    17    1
    23    17    18    1
    24    17    19    1
    25     7     8   ar
    26     8     9   ar
    27     9    10   ar
    28    10    11   ar
    29    11    12    1
    30    11     1   ar
    31     9     3   ar
    32    30    25   ar
    33    19    13    1
    34    18    20    1
    35    18    21    1
@<TRIPOS>MOLECULE
*****
 32 35 0 0 0
SMALL
GASTEIGER

@<TRIPOS>ATOM
      1 C          59.3831   88.6827    7.4294 C.ar    1  UNL1        0.1662
      2 C          59.9000   89.4787    8.5909 C.ar    1  UNL1        0.0455
      3 C          60.7192   88.8089    9.6539 C.ar    1  UNL1        0.0771
      4 C          61.2362   89.6050   10.8155 C.ar    1  UNL1        0.2646
      5 O          60.9339   91.0709   10.9138 O.2     1  UNL1       -0.2668
      6 N          62.0554   88.9351   11.8785 N.ar    1  UNL1       -0.2644
      7 C          62.3577   87.4692   11.7801 C.ar    1  UNL1        0.2037
      8 N          61.8407   86.6731   10.6187 N.ar    1  UNL1       -0.2147
      9 C          61.0215   87.3430    9.5556 C.ar    1  UNL1        0.0911
     10 C          60.5045   86.5470    8.3941 C.ar    1  UNL1        0.0521
     11 C          59.6853   87.2168    7.3310 C.ar    1  UNL1        0.1753
     12 F          59.1684   86.4207    6.1695 F       1  UNL1       -0.2009
     13 N          63.1769   86.7993   12.8432 N.pl3   1  UNL1       -0.2781
     14 C          63.8832   87.6249   13.8773 C.3     1  UNL1        0.0937
     15 C          64.7025   86.9550   14.9404 C.3     1  UNL1        0.0229
     16 C          64.8153   85.4596   14.9694 C.3     1  UNL1        0.0190
     17 C          64.1089   84.6339   13.9352 C.3     1  UNL1        0.0710
     18 N          64.2218   83.1385   13.9642 N.3     1  UNL1       -0.3208
     19 C          63.2897   85.3038   12.8722 C.3     1  UNL1        0.1089
     20 H          64.8121   82.8572   14.7471 H       1  UNL1        0.1189
     21 H          64.6363   82.8118   13.0913 H       1  UNL1        0.1189
     22 C          59.1478   90.4810    5.5691 C.3     1  UNL1        0.2526
     23 O          58.5638   89.3526    6.3663 O.3     1  UNL1       -0.4692
     24 C          62.5723   89.7312   13.0400 C.3     1  UNL1        0.1391
     25 C          63.6873   90.7143   12.8386 C.ar    1  UNL1        0.0102
     26 C          64.1187   91.0850   11.4506 C.ar    1  UNL1       -0.0017
     27 C          65.2336   92.0680   11.2492 C.ar    1  UNL1       -0.0002
     28 C          65.9171   92.6803   12.4357 C.ar    1  UNL1        0.0007
     29 C          65.4857   92.3095   13.8237 C.ar    1  UNL1        0.0100
     30 C          64.3708   91.3265   14.0251 C.ar    1  UNL1        0.0663
     31 C          63.9394   90.9558   15.4131 C.1     1  UNL1        0.1002
     32 N          63.5080   90.5850   16.8011 N.1     1  UNL1       -0.1908
@<TRIPOS>BOND
     1    22    23    1
     2    23     1    1
     3     1     2   ar
     4     2     3   ar
     5     3     4   ar
     6     4     5    2
     7     4     6   ar
     8     6    24    1
     9    24    25    1
    10    25    26   ar
    11    26    27   ar
    12    27    28   ar
    13    28    29   ar
    14    29    30   ar
    15    30    31    1
    16    31    32    3
    17     6     7   ar
    18     7    13    1
    19    13    14    1
    20    14    15    1
    21    15    16    1
    22    16    17    1
    23    17    18    1
    24    17    19    1
    25     7     8   ar
    26     8     9   ar
    27     9    10   ar
    28    10    11   ar
    29    11    12    1
    30    11     1   ar
    31     9     3   ar
    32    30    25   ar
    33    19    13    1
    34    18    20    1
    35    18    21    1
@<TRIPOS>MOLECULE
*****
 32 35 0 0 0
SMALL
GASTEIGER

@<TRIPOS>ATOM
      1 C          63.0449   81.7485   12.3363 C.ar    1  UNL1        0.1662
      2 C          62.7752   83.0036   11.5605 C.ar    1  UNL1        0.0455
      3 C          63.0067   84.3425   12.1959 C.ar    1  UNL1        0.0771
      4 C          62.7369   85.5976   11.4200 C.ar    1  UNL1        0.2646
      5 O          62.2357   85.5138   10.0088 O.2     1  UNL1       -0.2668
      6 N          62.9684   86.9365   12.0554 N.ar    1  UNL1       -0.2644
      7 C          63.4697   87.0203   13.4668 C.ar    1  UNL1        0.2037
      8 N          63.7394   85.7652   14.2426 N.ar    1  UNL1       -0.2147
      9 C          63.5079   84.4263   13.6072 C.ar    1  UNL1        0.0911
     10 C          63.7776   83.1713   14.3830 C.ar    1  UNL1        0.0521
     11 C          63.5461   81.8324   13.7476 C.ar    1  UNL1        0.1753
     12 F          63.8159   80.5772   14.5235 F       1  UNL1       -0.2009
     13 N          63.7011   88.3592   14.1022 N.pl3   1  UNL1       -0.2781
     14 C          63.4047   88.5594   15.5589 C.3     1  UNL1        0.0937
     15 C          63.6362   89.8983   16.1943 C.3     1  UNL1        0.0229
     16 C          64.1641   91.0370   15.3731 C.3     1  UNL1        0.0190
     17 C          64.4606   90.8369   13.9163 C.3     1  UNL1        0.0710
     18 N          64.9885   91.9756   13.0950 N.3     1  UNL1       -0.3208
     19 C          64.2291   89.4980   13.2809 C.3     1  UNL1        0.1089
     20 H          65.0842   92.8034   13.6833 H       1  UNL1        0.1189
     21 H          64.3410   92.1735   12.3322 H       1  UNL1        0.1189
     22 C          63.0610   80.2231   10.2333 C.3     1  UNL1        0.2526
     23 O          62.8134   80.4096   11.7009 O.3     1  UNL1       -0.4692
     24 C          62.6987   88.1916   11.2796 C.3     1  UNL1        0.1391
     25 C          61.3896   88.9062   11.4406 C.ar    1  UNL1        0.0102
     26 C          60.1812   88.1586   11.9211 C.ar    1  UNL1       -0.0017
     27 C          58.8722   88.8730   12.0821 C.ar    1  UNL1       -0.0002
     28 C          58.7716   90.3351   11.7625 C.ar    1  UNL1        0.0007
     29 C          59.9799   91.0827   11.2820 C.ar    1  UNL1        0.0100
     30 C          61.2890   90.3682   11.1210 C.ar    1  UNL1        0.0663
     31 C          62.4973   91.1158   10.6405 C.1     1  UNL1        0.1002
     32 N          63.7057   91.8634   10.1599 N.1     1  UNL1       -0.1908
@<TRIPOS>BOND
     1    22    23    1
     2    23     1    1
     3     1     2   ar
     4     2     3   ar
     5     3     4   ar
     6     4     5    2
     7     4     6   ar
     8     6    24    1
     9    24    25    1
    10    25    26   ar
    11    26    27   ar
    12    27    28   ar
    13    28    29   ar
    14    29    30   ar
    15    30    31    1
    16    31    32    3
    17     6     7   ar
    18     7    13    1
    19    13    14    1
    20    14    15    1
    21    15    16    1
    22    16    17    1
    23    17    18    1
    24    17    19    1
    25     7     8   ar
    26     8     9   ar
    27     9    10   ar
    28    10    11   ar
    29    11    12    1
    30    11     1   ar
    31     9     3   ar
    32    30    25   ar
    33    19    13    1
    34    18    20    1
    35    18    21    1
@<TRIPOS>MOLECULE
*****
 32 35 0 0 0
SMALL
GASTEIGER

@<TRIPOS>ATOM
      1 C          63.4829   94.3184    1.5757 C.ar    1  UNL1        0.1662
      2 C          62.6954   95.1121    0.5758 C.ar    1  UNL1        0.0455
      3 C          61.5544   94.4726   -0.1583 C.ar    1  UNL1        0.0771
      4 C          60.7669   95.2664   -1.1583 C.ar    1  UNL1        0.2646
      5 O          61.1204   96.6997   -1.4240 O.2     1  UNL1       -0.2668
      6 N          59.6258   94.6268   -1.8924 N.ar    1  UNL1       -0.2644
      7 C          59.2723   93.1934   -1.6267 C.ar    1  UNL1        0.2037
      8 N          60.0598   92.3997   -0.6268 N.ar    1  UNL1       -0.2147
      9 C          61.2008   93.0393    0.1074 C.ar    1  UNL1        0.0911
     10 C          61.9883   92.2456    1.1073 C.ar    1  UNL1        0.0521
     11 C          63.1294   92.8851    1.8414 C.ar    1  UNL1        0.1753
     12 F          63.9169   92.0913    2.8414 F       1  UNL1       -0.2009
     13 N          58.1313   92.5539   -2.3608 N.pl3   1  UNL1       -0.2781
     14 C          56.8578   92.2343   -1.6355 C.3     1  UNL1        0.0937
     15 C          55.7168   91.5947   -2.3697 C.3     1  UNL1        0.0229
     16 C          55.8492   91.2747   -3.8291 C.3     1  UNL1        0.0190
     17 C          57.1227   91.5943   -4.5545 C.3     1  UNL1        0.0710
     18 N          57.2552   91.2744   -6.0140 N.3     1  UNL1       -0.3208
     19 C          58.2638   92.2339   -3.8203 C.3     1  UNL1        0.1089
     20 H          56.3915   90.8468   -6.3480 H       1  UNL1        0.1189
     21 H          58.0306   90.6260   -6.1509 H       1  UNL1        0.1189
     22 C          64.7141   96.4525    2.4001 C.3     1  UNL1        0.2526
     23 O          64.6239   94.9580    2.3099 O.3     1  UNL1       -0.4692
     24 C          58.8384   95.4205   -2.8923 C.3     1  UNL1        0.1391
     25 C          57.3705   95.6469   -2.6817 C.ar    1  UNL1        0.0102
     26 C          56.8598   96.0470   -1.3293 C.ar    1  UNL1       -0.0017
     27 C          55.3920   96.2734   -1.1187 C.ar    1  UNL1       -0.0002
     28 C          54.4350   96.0996   -2.2605 C.ar    1  UNL1        0.0007
     29 C          54.9457   95.6995   -3.6129 C.ar    1  UNL1        0.0100
     30 C          56.4135   95.4731   -3.8236 C.ar    1  UNL1        0.0663
     31 C          56.9242   95.0730   -5.1760 C.1     1  UNL1        0.1002
     32 N          57.4349   94.6729   -6.5284 N.1     1  UNL1       -0.1908
@<TRIPOS>BOND
     1    22    23    1
     2    23     1    1
     3     1     2   ar
     4     2     3   ar
     5     3     4   ar
     6     4     5    2
     7     4     6   ar
     8     6    24    1
     9    24    25    1
    10    25    26   ar
    11    26    27   ar
    12    27    28   ar
    13    28    29   ar
    14    29    30   ar
    15    30    31    1
    16    31    32    3
    17     6     7   ar
    18     7    13    1
    19    13    14    1
    20    14    15    1
    21    15    16    1
    22    16    17    1
    23    17    18    1
    24    17    19    1
    25     7     8   ar
    26     8     9   ar
    27     9    10   ar
    28    10    11   ar
    29    11    12    1
    30    11     1   ar
    31     9     3   ar
    32    30    25   ar
    33    19    13    1
    34    18    20    1
    35    18    21    1
