@<TRIPOS>MOLECULE
*****
 29 32 0 0 0
SMALL
GASTEIGER

@<TRIPOS>ATOM
      1 N          65.2778   93.1433   11.2044 N.pl3   1  UNL1       -0.3017
      2 C          64.4315   92.3417   10.2605 C.3     1  UNL1        0.1124
      3 C          63.6325   91.1798   10.7718 C.3     1  UNL1        0.1152
      4 N          63.6798   90.8195   12.2272 N.am    1  UNL1       -0.2713
      5 C          62.8808   89.6576   12.7386 C.2     1  UNL1        0.2666
      6 O          62.9281   89.2974   14.1939 O.2     1  UNL1       -0.2683
      7 C          64.5262   91.6212   13.1711 C.3     1  UNL1        0.1152
      8 C          65.3252   92.7831   12.6597 C.3     1  UNL1        0.1124
      9 C          67.1815   94.0785    9.7039 C.ar    1  UNL1        0.1519
     10 C          67.9805   95.2404    9.1925 C.ar    1  UNL1        0.0382
     11 C          67.6748   96.6291    9.6702 C.ar    1  UNL1        0.0032
     12 C          66.5702   96.8559   10.6593 C.ar    1  UNL1        0.0015
     13 C          65.7712   95.6940   11.1706 C.ar    1  UNL1        0.0176
     14 C          66.0769   94.3053   10.6930 C.ar    1  UNL1        0.0824
     15 C          68.8835   92.3289    8.8139 C.3     1  UNL1        0.2525
     16 O          67.4872   92.6899    9.2262 O.3     1  UNL1       -0.4702
     17 C          62.0344   88.8560   11.7947 C.ar    1  UNL1        0.1328
     18 C          62.5370   87.9970   10.6724 C.ar    1  UNL1        0.0442
     19 C          61.3501   87.3827    9.9914 C.ar    1  UNL1        0.1025
     20 N          60.1138   87.8620   10.6928 N.ar    1  UNL1       -0.1691
     21 N          60.5368   88.7726   11.8072 N.ar    1  UNL1       -0.2444
     22 C          59.6226   89.4762   12.7660 C.3     1  UNL1        0.1539
     23 C          61.3920   86.4524    8.8155 C.ar    1  UNL1        0.0194
     24 C          60.1711   86.2633    7.9648 C.ar    1  UNL1        0.0024
     25 C          60.2129   85.3331    6.7890 C.ar    1  UNL1        0.0114
     26 C          61.4758   84.5918    6.4637 C.ar    1  UNL1        0.0577
     27 CL         61.5177   83.6615    5.2877 Cl      1  UNL1       -0.0822
     28 C          62.6967   84.7809    7.3143 C.ar    1  UNL1        0.0114
     29 C          62.6549   85.7111    8.4902 C.ar    1  UNL1        0.0024
@<TRIPOS>BOND
     1    15    16    1
     2    16     9    1
     3     9    10   ar
     4    10    11   ar
     5    11    12   ar
     6    12    13   ar
     7    13    14   ar
     8    14     1    1
     9     1     2    1
    10     2     3    1
    11     3     4    1
    12     4     5   am
    13     5     6    2
    14     5    17    1
    15    17    18   ar
    16    18    19   ar
    17    19    23    1
    18    23    24   ar
    19    24    25   ar
    20    25    26   ar
    21    26    27    1
    22    26    28   ar
    23    28    29   ar
    24    19    20   ar
    25    20    21   ar
    26    21    22    1
    27     4     7    1
    28     7     8    1
    29    14     9   ar
    30     8     1    1
    31    21    17   ar
    32    29    23   ar
@<TRIPOS>MOLECULE
*****
 29 32 0 0 0
SMALL
GASTEIGER

@<TRIPOS>ATOM
      1 N          65.6524   93.3852   11.2034 N.pl3   1  UNL1       -0.3017
      2 C          64.9639   92.2104   10.5742 C.3     1  UNL1        0.1124
      3 C          64.4889   91.0732   11.4293 C.3     1  UNL1        0.1152
      4 N          64.7023   91.1108   12.9136 N.am    1  UNL1       -0.2713
      5 C          64.2272   89.9737   13.7686 C.2     1  UNL1        0.2666
      6 O          64.4407   90.0113   15.2529 O.2     1  UNL1       -0.2683
      7 C          65.3908   92.2856   13.5428 C.3     1  UNL1        0.1152
      8 C          65.8659   93.4228   12.6876 C.3     1  UNL1        0.1124
      9 C          67.4818   94.4631    9.7063 C.ar    1  UNL1        0.1519
     10 C          67.9568   95.6003    8.8512 C.ar    1  UNL1        0.0382
     11 C          67.0775   96.7967    8.6381 C.ar    1  UNL1        0.0032
     12 C          65.7231   96.8559    9.2801 C.ar    1  UNL1        0.0015
     13 C          65.2481   95.7188   10.1352 C.ar    1  UNL1        0.0176
     14 C          66.1275   94.5224   10.3483 C.ar    1  UNL1        0.0824
     15 C          68.5970   92.2999    8.7971 C.3     1  UNL1        0.2525
     16 O          68.3612   93.2667    9.9193 O.3     1  UNL1       -0.4702
     17 C          63.5387   88.7989   13.1394 C.ar    1  UNL1        0.1328
     18 C          63.8551   87.3540   13.3890 C.ar    1  UNL1        0.0442
     19 C          62.9249   86.5249   12.5540 C.ar    1  UNL1        0.1025
     20 N          62.0336   87.4573   11.7884 N.ar    1  UNL1       -0.1691
     21 N          62.4130   88.8627   12.1502 N.ar    1  UNL1       -0.2444
     22 C          61.7780   90.1125   11.6165 C.3     1  UNL1        0.1539
     23 C          62.8918   85.0264   12.4951 C.ar    1  UNL1        0.0194
     24 C          62.9328   84.3270   11.1688 C.ar    1  UNL1        0.0024
     25 C          62.8997   82.8286   11.1097 C.ar    1  UNL1        0.0114
     26 C          62.8256   82.0295   12.3770 C.ar    1  UNL1        0.0577
     27 CL         62.7925   80.5310   12.3180 Cl      1  UNL1       -0.0822
     28 C          62.7845   82.7290   13.7033 C.ar    1  UNL1        0.0114
     29 C          62.8176   84.2274   13.7624 C.ar    1  UNL1        0.0024
@<TRIPOS>BOND
     1    15    16    1
     2    16     9    1
     3     9    10   ar
     4    10    11   ar
     5    11    12   ar
     6    12    13   ar
     7    13    14   ar
     8    14     1    1
     9     1     2    1
    10     2     3    1
    11     3     4    1
    12     4     5   am
    13     5     6    2
    14     5    17    1
    15    17    18   ar
    16    18    19   ar
    17    19    23    1
    18    23    24   ar
    19    24    25   ar
    20    25    26   ar
    21    26    27    1
    22    26    28   ar
    23    28    29   ar
    24    19    20   ar
    25    20    21   ar
    26    21    22    1
    27     4     7    1
    28     7     8    1
    29    14     9   ar
    30     8     1    1
    31    21    17   ar
    32    29    23   ar
@<TRIPOS>MOLECULE
*****
 29 32 0 0 0
SMALL
GASTEIGER

@<TRIPOS>ATOM
      1 N          62.5022   85.5338   12.2849 N.pl3   1  UNL1       -0.3017
      2 C          63.5751   86.5363   12.5915 C.3     1  UNL1        0.1124
      3 C          63.3978   87.9708   12.1907 C.3     1  UNL1        0.1152
      4 N          62.1476   88.4030   11.4833 N.am    1  UNL1       -0.2713
      5 C          61.9704   89.8375   11.0825 C.2     1  UNL1        0.2666
      6 O          60.7203   90.2696   10.3752 O.2     1  UNL1       -0.2683
      7 C          61.0747   87.4005   11.1768 C.3     1  UNL1        0.1152
      8 C          61.2520   85.9659   11.5776 C.3     1  UNL1        0.1124
      9 C          62.4717   83.6882   14.1132 C.ar    1  UNL1        0.1519
     10 C          62.6490   82.2536   14.5140 C.ar    1  UNL1        0.0382
     11 C          63.0340   81.2302   13.4872 C.ar    1  UNL1        0.0032
     12 C          63.2417   81.6412   12.0597 C.ar    1  UNL1        0.0015
     13 C          63.0644   83.0757   11.6589 C.ar    1  UNL1        0.0176
     14 C          62.6794   84.0992   12.6857 C.ar    1  UNL1        0.0824
     15 C          63.1220   85.2615   16.0758 C.3     1  UNL1        0.2525
     16 O          62.0867   84.7117   15.1400 O.3     1  UNL1       -0.4702
     17 C          63.0433   90.8399   11.3891 C.ar    1  UNL1        0.1328
     18 C          63.6939   91.7645   10.4032 C.ar    1  UNL1        0.0442
     19 C          64.7067   92.5898   11.1401 C.ar    1  UNL1        0.1025
     20 N          64.6821   92.1753   12.5815 N.ar    1  UNL1       -0.1691
     21 N          63.6541   91.0938   12.7354 N.ar    1  UNL1       -0.2444
     22 C          63.2992   90.3898   14.0115 C.3     1  UNL1        0.1539
     23 C          65.5891   93.6444   10.5409 C.ar    1  UNL1        0.0194
     24 C          66.7676   93.2482    9.7017 C.ar    1  UNL1        0.0024
     25 C          67.6500   94.3027    9.1025 C.ar    1  UNL1        0.0114
     26 C          67.3540   95.7535    9.3424 C.ar    1  UNL1        0.0577
     27 CL         68.2365   96.8081    8.7431 Cl      1  UNL1       -0.0822
     28 C          66.1756   96.1497   10.1816 C.ar    1  UNL1        0.0114
     29 C          65.2931   95.0952   10.7809 C.ar    1  UNL1        0.0024
@<TRIPOS>BOND
     1    15    16    1
     2    16     9    1
     3     9    10   ar
     4    10    11   ar
     5    11    12   ar
     6    12    13   ar
     7    13    14   ar
     8    14     1    1
     9     1     2    1
    10     2     3    1
    11     3     4    1
    12     4     5   am
    13     5     6    2
    14     5    17    1
    15    17    18   ar
    16    18    19   ar
    17    19    23    1
    18    23    24   ar
    19    24    25   ar
    20    25    26   ar
    21    26    27    1
    22    26    28   ar
    23    28    29   ar
    24    19    20   ar
    25    20    21   ar
    26    21    22    1
    27     4     7    1
    28     7     8    1
    29    14     9   ar
    30     8     1    1
    31    21    17   ar
    32    29    23   ar
@<TRIPOS>MOLECULE
*****
 29 32 0 0 0
SMALL
GASTEIGER

@<TRIPOS>ATOM
      1 N          61.9066   88.0482   10.3901 N.pl3   1  UNL1       -0.3017
      2 C          62.5975   89.3447   10.0873 C.3     1  UNL1        0.1124
      3 C          63.3975   90.0347   11.1521 C.3     1  UNL1        0.1152
      4 N          63.5065   89.4283   12.5198 N.am    1  UNL1       -0.2713
      5 C          64.3065   90.1184   13.5845 C.2     1  UNL1        0.2666
      6 O          64.4154   89.5120   14.9521 O.2     1  UNL1       -0.2683
      7 C          62.8155   88.1319   12.8226 C.3     1  UNL1        0.1152
      8 C          62.0155   87.4418   11.7577 C.3     1  UNL1        0.1124
      9 C          61.7021   86.2102    8.5652 C.ar    1  UNL1        0.1519
     10 C          60.9021   85.5202    7.5004 C.ar    1  UNL1        0.0382
     11 C          59.5066   85.9781    7.1956 C.ar    1  UNL1        0.0032
     12 C          58.9111   87.1260    7.9556 C.ar    1  UNL1        0.0015
     13 C          59.7111   87.8160    9.0204 C.ar    1  UNL1        0.0176
     14 C          61.1066   87.3581    9.3252 C.ar    1  UNL1        0.0824
     15 C          63.3233   84.4293    9.5399 C.3     1  UNL1        0.2525
     16 O          63.0976   85.7523    8.8701 O.3     1  UNL1       -0.4702
     17 C          64.9974   91.4149   13.2817 C.ar    1  UNL1        0.1328
     18 C          65.2823   91.9640   11.9152 C.ar    1  UNL1        0.0442
     19 C          65.9858   93.2784   12.0812 C.ar    1  UNL1        0.1025
     20 N          66.1357   93.5416   13.5503 N.ar    1  UNL1       -0.1691
     21 N          65.5249   92.3899   14.2922 N.ar    1  UNL1       -0.2444
     22 C          65.4539   92.2397   15.7830 C.3     1  UNL1        0.1539
     23 C          66.4567   94.1725   10.9727 C.ar    1  UNL1        0.0194
     24 C          66.2926   95.6591   11.0872 C.ar    1  UNL1        0.0024
     25 C          66.7634   96.5533    9.9788 C.ar    1  UNL1        0.0114
     26 C          67.3984   95.9608    8.7558 C.ar    1  UNL1        0.0577
     27 CL         67.8693   96.8550    7.6472 Cl      1  UNL1       -0.0822
     28 C          67.5625   94.4742    8.6412 C.ar    1  UNL1        0.0114
     29 C          67.0917   93.5801    9.7496 C.ar    1  UNL1        0.0024
@<TRIPOS>BOND
     1    15    16    1
     2    16     9    1
     3     9    10   ar
     4    10    11   ar
     5    11    12   ar
     6    12    13   ar
     7    13    14   ar
     8    14     1    1
     9     1     2    1
    10     2     3    1
    11     3     4    1
    12     4     5   am
    13     5     6    2
    14     5    17    1
    15    17    18   ar
    16    18    19   ar
    17    19    23    1
    18    23    24   ar
    19    24    25   ar
    20    25    26   ar
    21    26    27    1
    22    26    28   ar
    23    28    29   ar
    24    19    20   ar
    25    20    21   ar
    26    21    22    1
    27     4     7    1
    28     7     8    1
    29    14     9   ar
    30     8     1    1
    31    21    17   ar
    32    29    23   ar
@<TRIPOS>MOLECULE
*****
 29 32 0 0 0
SMALL
GASTEIGER

@<TRIPOS>ATOM
      1 N          66.1155   94.2570   11.4578 N.pl3   1  UNL1       -0.3017
      2 C          65.3420   92.9719   11.4377 C.3     1  UNL1        0.1124
      3 C          65.1967   92.1643   12.6933 C.3     1  UNL1        0.1152
      4 N          65.8248   92.6417   13.9691 N.am    1  UNL1       -0.2713
      5 C          65.6795   91.8341   15.2247 C.2     1  UNL1        0.2666
      6 O          66.3076   92.3116   16.5004 O.2     1  UNL1       -0.2683
      7 C          66.5983   93.9268   13.9892 C.3     1  UNL1        0.1152
      8 C          66.7436   94.7344   12.7335 C.3     1  UNL1        0.1124
      9 C          67.4704   94.8885    9.3329 C.ar    1  UNL1        0.1519
     10 C          67.6157   95.6961    8.0773 C.ar    1  UNL1        0.0382
     11 C          66.5512   96.6798    7.6909 C.ar    1  UNL1        0.0032
     12 C          65.3416   96.8560    8.5602 C.ar    1  UNL1        0.0015
     13 C          65.1963   96.0484    9.8158 C.ar    1  UNL1        0.0176
     14 C          66.2608   95.0646   10.2021 C.ar    1  UNL1        0.0824
     15 C          68.4622   92.4895    9.2277 C.3     1  UNL1        0.2525
     16 O          68.5348   93.9048    9.7193 O.3     1  UNL1       -0.4702
     17 C          64.9061   90.5491   15.2046 C.ar    1  UNL1        0.1328
     18 C          65.2800   89.3066   14.4520 C.ar    1  UNL1        0.0442
     19 C          64.2280   88.2705   14.7158 C.ar    1  UNL1        0.1025
     20 N          63.2038   88.8726   15.6316 N.ar    1  UNL1       -0.1691
     21 N          63.6229   90.2808   15.9337 N.ar    1  UNL1       -0.2444
     22 C          62.8878   91.2505   16.8108 C.3     1  UNL1        0.1539
     23 C          64.2042   86.8769   14.1613 C.ar    1  UNL1        0.0194
     24 C          65.0341   85.8020   14.7984 C.ar    1  UNL1        0.0024
     25 C          65.0104   84.4085   14.2440 C.ar    1  UNL1        0.0114
     26 C          64.1569   84.0899   13.0523 C.ar    1  UNL1        0.0577
     27 CL         64.1332   82.6963   12.4978 Cl      1  UNL1       -0.0822
     28 C          63.3271   85.1648   12.4152 C.ar    1  UNL1        0.0114
     29 C          63.3507   86.5583   12.9697 C.ar    1  UNL1        0.0024
@<TRIPOS>BOND
     1    15    16    1
     2    16     9    1
     3     9    10   ar
     4    10    11   ar
     5    11    12   ar
     6    12    13   ar
     7    13    14   ar
     8    14     1    1
     9     1     2    1
    10     2     3    1
    11     3     4    1
    12     4     5   am
    13     5     6    2
    14     5    17    1
    15    17    18   ar
    16    18    19   ar
    17    19    23    1
    18    23    24   ar
    19    24    25   ar
    20    25    26   ar
    21    26    27    1
    22    26    28   ar
    23    28    29   ar
    24    19    20   ar
    25    20    21   ar
    26    21    22    1
    27     4     7    1
    28     7     8    1
    29    14     9   ar
    30     8     1    1
    31    21    17   ar
    32    29    23   ar
@<TRIPOS>MOLECULE
*****
 29 32 0 0 0
SMALL
GASTEIGER

@<TRIPOS>ATOM
      1 N          63.2561   84.9259   13.7948 N.pl3   1  UNL1       -0.3017
      2 C          63.2476   85.8617   12.6226 C.3     1  UNL1        0.1124
      3 C          63.5346   87.3200   12.8250 C.3     1  UNL1        0.1152
      4 N          63.8302   87.8425   14.1997 N.am    1  UNL1       -0.2713
      5 C          64.1173   89.3007   14.4021 C.2     1  UNL1        0.2666
      6 O          64.4129   89.8232   15.7767 O.2     1  UNL1       -0.2683
      7 C          63.8388   86.9066   15.3719 C.3     1  UNL1        0.1152
      8 C          63.5517   85.4483   15.1694 C.3     1  UNL1        0.1124
      9 C          63.5776   82.7374   12.4320 C.ar    1  UNL1        0.1519
     10 C          63.2906   81.2791   12.2296 C.ar    1  UNL1        0.0382
     11 C          62.3948   80.5510   13.1875 C.ar    1  UNL1        0.0032
     12 C          61.7862   81.2812   14.3478 C.ar    1  UNL1        0.0015
     13 C          62.0733   82.7395   14.5502 C.ar    1  UNL1        0.0176
     14 C          62.9690   83.4675   13.5923 C.ar    1  UNL1        0.0824
     15 C          64.2433   83.3496    9.9964 C.3     1  UNL1        0.2525
     16 O          64.4734   83.4655   11.4741 O.3     1  UNL1       -0.4702
     17 C          64.1088   90.2366   13.2299 C.ar    1  UNL1        0.1328
     18 C          65.2300   91.1439   12.8178 C.ar    1  UNL1        0.0442
     19 C          64.7917   91.8975   11.5972 C.ar    1  UNL1        0.1025
     20 N          63.3997   91.4560   11.2548 N.ar    1  UNL1       -0.1691
     21 N          62.9776   90.4295   12.2638 N.ar    1  UNL1       -0.2444
     22 C          61.6563   89.7204   12.3004 C.3     1  UNL1        0.1539
     23 C          65.6031   92.9141   10.8501 C.ar    1  UNL1        0.0194
     24 C          66.8323   92.4901   10.1022 C.ar    1  UNL1        0.0024
     25 C          67.6436   93.5067    9.3552 C.ar    1  UNL1        0.0114
     26 C          67.2258   94.9473    9.3559 C.ar    1  UNL1        0.0577
     27 CL         68.0373   95.9640    8.6088 Cl      1  UNL1       -0.0822
     28 C          65.9966   95.3713   10.1038 C.ar    1  UNL1        0.0114
     29 C          65.1853   94.3548   10.8509 C.ar    1  UNL1        0.0024
@<TRIPOS>BOND
     1    15    16    1
     2    16     9    1
     3     9    10   ar
     4    10    11   ar
     5    11    12   ar
     6    12    13   ar
     7    13    14   ar
     8    14     1    1
     9     1     2    1
    10     2     3    1
    11     3     4    1
    12     4     5   am
    13     5     6    2
    14     5    17    1
    15    17    18   ar
    16    18    19   ar
    17    19    23    1
    18    23    24   ar
    19    24    25   ar
    20    25    26   ar
    21    26    27    1
    22    26    28   ar
    23    28    29   ar
    24    19    20   ar
    25    20    21   ar
    26    21    22    1
    27     4     7    1
    28     7     8    1
    29    14     9   ar
    30     8     1    1
    31    21    17   ar
    32    29    23   ar
@<TRIPOS>MOLECULE
*****
 29 32 0 0 0
SMALL
GASTEIGER

@<TRIPOS>ATOM
      1 N          64.8844   91.0958   13.3454 N.pl3   1  UNL1       -0.3017
      2 C          64.6284   89.6199   13.4236 C.3     1  UNL1        0.1124
      3 C          63.6948   88.9679   12.4472 C.3     1  UNL1        0.1152
      4 N          63.0171   89.7919   11.3927 N.am    1  UNL1       -0.2713
      5 C          62.0835   89.1399   10.4164 C.2     1  UNL1        0.2666
      6 O          61.4059   89.9638    9.3619 O.2     1  UNL1       -0.2683
      7 C          63.2732   91.2678   11.3145 C.3     1  UNL1        0.1152
      8 C          64.2069   91.9197   12.2909 C.3     1  UNL1        0.1124
      9 C          65.3250   92.1419   15.6824 C.ar    1  UNL1        0.1519
     10 C          66.2586   92.7938   16.6587 C.ar    1  UNL1        0.0382
     11 C          67.6855   93.0516   16.2744 C.ar    1  UNL1        0.0032
     12 C          68.1786   92.6575   14.9137 C.ar    1  UNL1        0.0015
     13 C          67.2449   92.0056   13.9374 C.ar    1  UNL1        0.0176
     14 C          65.8181   91.7478   14.3218 C.ar    1  UNL1        0.0824
     15 C          63.4879   90.5288   16.5617 C.3     1  UNL1        0.2525
     16 O          63.8982   91.8841   16.0668 O.3     1  UNL1       -0.4702
     17 C          61.8274   87.6640   10.4945 C.ar    1  UNL1        0.1328
     18 C          62.5223   86.6956   11.4052 C.ar    1  UNL1        0.0442
     19 C          61.9559   85.3304   11.1493 C.ar    1  UNL1        0.1025
     20 N          60.9109   85.4551   10.0804 N.ar    1  UNL1       -0.1691
     21 N          60.8316   86.8973    9.6758 N.ar    1  UNL1       -0.2444
     22 C          59.9169   87.4719    8.6350 C.3     1  UNL1        0.1539
     23 C          62.3630   84.0631   11.8408 C.ar    1  UNL1        0.0194
     24 C          62.7104   82.8470   11.0344 C.ar    1  UNL1        0.0024
     25 C          63.1175   81.5797   11.7258 C.ar    1  UNL1        0.0114
     26 C          63.1771   81.5285   13.2237 C.ar    1  UNL1        0.0577
     27 CL         63.5842   80.2611   13.9153 Cl      1  UNL1       -0.0822
     28 C          62.8297   82.7446   14.0302 C.ar    1  UNL1        0.0114
     29 C          62.4226   84.0119   13.3387 C.ar    1  UNL1        0.0024
@<TRIPOS>BOND
     1    15    16    1
     2    16     9    1
     3     9    10   ar
     4    10    11   ar
     5    11    12   ar
     6    12    13   ar
     7    13    14   ar
     8    14     1    1
     9     1     2    1
    10     2     3    1
    11     3     4    1
    12     4     5   am
    13     5     6    2
    14     5    17    1
    15    17    18   ar
    16    18    19   ar
    17    19    23    1
    18    23    24   ar
    19    24    25   ar
    20    25    26   ar
    21    26    27    1
    22    26    28   ar
    23    28    29   ar
    24    19    20   ar
    25    20    21   ar
    26    21    22    1
    27     4     7    1
    28     7     8    1
    29    14     9   ar
    30     8     1    1
    31    21    17   ar
    32    29    23   ar
@<TRIPOS>MOLECULE
*****
 29 32 0 0 0
SMALL
GASTEIGER

@<TRIPOS>ATOM
      1 N          62.6277   85.4115   12.3924 N.pl3   1  UNL1       -0.3017
      2 C          63.6335   86.4653   12.7499 C.3     1  UNL1        0.1124
      3 C          63.4464   87.8742   12.2702 C.3     1  UNL1        0.1152
      4 N          62.2535   88.2292   11.4329 N.am    1  UNL1       -0.2713
      5 C          62.0664   89.6380   10.9532 C.2     1  UNL1        0.2666
      6 O          60.8735   89.9930   10.1160 O.2     1  UNL1       -0.2683
      7 C          61.2477   87.1754   11.0754 C.3     1  UNL1        0.1152
      8 C          61.4348   85.7665   11.5551 C.3     1  UNL1        0.1124
      9 C          63.7496   83.0811   12.1462 C.ar    1  UNL1        0.1519
     10 C          63.9367   81.6723   12.6260 C.ar    1  UNL1        0.0382
     11 C          63.1891   81.1850   13.8316 C.ar    1  UNL1        0.0032
     12 C          62.2543   82.1065   14.5575 C.ar    1  UNL1        0.0015
     13 C          62.0672   83.5153   14.0777 C.ar    1  UNL1        0.0176
     14 C          62.8148   84.0026   12.8721 C.ar    1  UNL1        0.0824
     15 C          63.8117   83.6321    9.6080 C.3     1  UNL1        0.2525
     16 O          64.4973   83.5684   10.9406 O.3     1  UNL1       -0.4702
     17 C          63.0722   90.6919   11.3107 C.ar    1  UNL1        0.1328
     18 C          63.7470   91.6279   10.3524 C.ar    1  UNL1        0.0442
     19 C          64.6716   92.5093   11.1387 C.ar    1  UNL1        0.1025
     20 N          64.5683   92.1179   12.5831 N.ar    1  UNL1       -0.1691
     21 N          63.5798   90.9947   12.6894 N.ar    1  UNL1       -0.2444
     22 C          63.1707   90.2969   13.9526 C.3     1  UNL1        0.1539
     23 C          65.5460   93.5919   10.5790 C.ar    1  UNL1        0.0194
     24 C          65.1435   95.0298   10.7214 C.ar    1  UNL1        0.0024
     25 C          66.0179   96.1124   10.1617 C.ar    1  UNL1        0.0114
     26 C          67.2948   95.7571    9.4595 C.ar    1  UNL1        0.0577
     27 CL         68.1693   96.8398    8.8997 Cl      1  UNL1       -0.0822
     28 C          67.6974   94.3191    9.3170 C.ar    1  UNL1        0.0114
     29 C          66.8230   93.2365    9.8767 C.ar    1  UNL1        0.0024
@<TRIPOS>BOND
     1    15    16    1
     2    16     9    1
     3     9    10   ar
     4    10    11   ar
     5    11    12   ar
     6    12    13   ar
     7    13    14   ar
     8    14     1    1
     9     1     2    1
    10     2     3    1
    11     3     4    1
    12     4     5   am
    13     5     6    2
    14     5    17    1
    15    17    18   ar
    16    18    19   ar
    17    19    23    1
    18    23    24   ar
    19    24    25   ar
    20    25    26   ar
    21    26    27    1
    22    26    28   ar
    23    28    29   ar
    24    19    20   ar
    25    20    21   ar
    26    21    22    1
    27     4     7    1
    28     7     8    1
    29    14     9   ar
    30     8     1    1
    31    21    17   ar
    32    29    23   ar
@<TRIPOS>MOLECULE
*****
 29 32 0 0 0
SMALL
GASTEIGER

@<TRIPOS>ATOM
      1 N          65.7082   93.4144   11.2389 N.pl3   1  UNL1       -0.3017
      2 C          65.1237   92.1867   10.6056 C.3     1  UNL1        0.1124
      3 C          64.6789   91.0396   11.4636 C.3     1  UNL1        0.1152
      4 N          64.8187   91.1201   12.9549 N.am    1  UNL1       -0.2713
      5 C          64.3739   89.9729   13.8129 C.2     1  UNL1        0.2666
      6 O          64.5136   90.0534   15.3042 O.2     1  UNL1       -0.2683
      7 C          65.4032   92.3478   13.5883 C.3     1  UNL1        0.1152
      8 C          65.8479   93.4950   12.7302 C.3     1  UNL1        0.1124
      9 C          67.5287   94.5618    9.7831 C.ar    1  UNL1        0.1519
     10 C          67.9734   95.7090    8.9251 C.ar    1  UNL1        0.0382
     11 C          67.0424   96.8560    8.6649 C.ar    1  UNL1        0.0032
     12 C          65.6667   96.8558    9.2627 C.ar    1  UNL1        0.0015
     13 C          65.2220   95.7086   10.1207 C.ar    1  UNL1        0.0176
     14 C          66.1530   94.5616   10.3809 C.ar    1  UNL1        0.0824
     15 C          68.3375   92.1530    9.2417 C.3     1  UNL1        0.2525
     16 O          68.4597   93.4149   10.0433 O.3     1  UNL1       -0.4702
     17 C          63.7894   88.7452   13.1796 C.ar    1  UNL1        0.1328
     18 C          63.1312   88.6757   11.8335 C.ar    1  UNL1        0.0442
     19 C          62.6954   87.2590   11.6031 C.ar    1  UNL1        0.1025
     20 N          63.0844   86.4529   12.8068 N.ar    1  UNL1       -0.1691
     21 N          63.7605   87.3714   13.7811 N.ar    1  UNL1       -0.2444
     22 C          64.3110   86.9841   15.1216 C.3     1  UNL1        0.1539
     23 C          61.9939   86.7396   10.3832 C.ar    1  UNL1        0.0194
     24 C          60.5717   87.1315   10.1121 C.ar    1  UNL1        0.0024
     25 C          59.8702   86.6122    8.8923 C.ar    1  UNL1        0.0114
     26 C          60.5909   85.7009    7.9435 C.ar    1  UNL1        0.0577
     27 CL         59.8894   85.1815    6.7236 Cl      1  UNL1       -0.0822
     28 C          62.0132   85.3090    8.2147 C.ar    1  UNL1        0.0114
     29 C          62.7147   85.8283    9.4345 C.ar    1  UNL1        0.0024
@<TRIPOS>BOND
     1    15    16    1
     2    16     9    1
     3     9    10   ar
     4    10    11   ar
     5    11    12   ar
     6    12    13   ar
     7    13    14   ar
     8    14     1    1
     9     1     2    1
    10     2     3    1
    11     3     4    1
    12     4     5   am
    13     5     6    2
    14     5    17    1
    15    17    18   ar
    16    18    19   ar
    17    19    23    1
    18    23    24   ar
    19    24    25   ar
    20    25    26   ar
    21    26    27    1
    22    26    28   ar
    23    28    29   ar
    24    19    20   ar
    25    20    21   ar
    26    21    22    1
    27     4     7    1
    28     7     8    1
    29    14     9   ar
    30     8     1    1
    31    21    17   ar
    32    29    23   ar
