@<TRIPOS>MOLECULE
*****
 33 37 0 0 0
SMALL
GASTEIGER

@<TRIPOS>ATOM
      1 N          64.1717   85.6450   14.3346 N.3     1  UNL1       -0.2726
      2 C          64.7268   84.2736   14.5820 C.3     1  UNL1        0.0721
      3 C          64.3275   83.3976   13.4316 C.3     1  UNL1        0.0190
      4 C          63.5258   84.2276   12.4734 C.3     1  UNL1        0.0201
      5 C          63.2836   83.1301   11.4800 C.3     1  UNL1        0.0061
      6 C          62.7286   84.5015   11.2326 C.3     1  UNL1        0.0237
      7 C          63.4295   85.6166   13.0314 C.3     1  UNL1        0.0724
      8 C          61.9479   85.4514   10.3735 C.ar    1  UNL1       -0.0225
      9 C          61.0862   86.5021   11.0088 C.ar    1  UNL1       -0.0043
     10 C          60.3055   87.4521   10.1496 C.ar    1  UNL1        0.0035
     11 C          60.3864   87.3512    8.6552 C.ar    1  UNL1        0.0714
     12 C          61.2481   86.3005    8.0199 C.ar    1  UNL1        0.0035
     13 C          62.0288   85.3506    8.8791 C.ar    1  UNL1       -0.0043
     14 C          59.6057   88.3012    7.7961 C.3     1  UNL1        0.4186
     15 F          58.8249   89.2511    6.9369 F       1  UNL1       -0.1659
     16 F          60.2067   89.4614    8.5328 F       1  UNL1       -0.1659
     17 F          59.0047   87.1410    7.0594 F       1  UNL1       -0.1659
     18 C          64.3309   86.8358   15.2328 C.3     1  UNL1        0.0730
     19 C          64.3718   88.2163   14.6477 C.3     1  UNL1        0.0294
     20 C          63.6417   89.3392   15.3232 C.3     1  UNL1        0.0666
     21 S          64.0534   90.7596   15.0724 S.3     1  UNL1       -0.0756
     22 C          66.5828   92.6097   14.1620 C.3     1  UNL1        0.1337
     23 N          65.5155   92.0686   13.2575 N.ar    1  UNL1       -0.2918
     24 C          64.3529   91.2182   13.6760 C.ar    1  UNL1        0.1930
     25 N          63.5422   90.9069   12.4529 N.ar    1  UNL1       -0.1224
     26 N          64.2039   91.5649   11.2785 N.ar    1  UNL1       -0.1328
     27 C          65.4235   92.2829   11.7757 C.ar    1  UNL1        0.1434
     28 C          66.3826   93.0759   10.9382 C.3     1  UNL1        0.0638
     29 C          67.5360   92.3909   10.2672 C.3     1  UNL1        0.0397
     30 C          68.4951   93.1839    9.4297 C.3     1  UNL1        0.1426
     31 O          68.3006   94.6619    9.2634 O.3     1  UNL1       -0.3538
     32 C          67.1471   95.3469    9.9344 C.3     1  UNL1        0.1426
     33 C          66.1881   94.5538   10.7719 C.3     1  UNL1        0.0397
@<TRIPOS>BOND
     1    22    23    1
     2    23    24   ar
     3    24    21    1
     4    21    20    1
     5    20    19    1
     6    19    18    1
     7    18     1    1
     8     1     2    1
     9     2     3    1
    10     4     3    1
    11     4     5    1
    12     5     6    1
    13     6     8    1
    14     8     9   ar
    15     9    10   ar
    16    10    11   ar
    17    11    14    1
    18    14    15    1
    19    14    16    1
    20    14    17    1
    21    11    12   ar
    22    12    13   ar
    23     4     7    1
    24    24    25   ar
    25    25    26   ar
    26    26    27   ar
    27    27    28    1
    28    28    29    1
    29    29    30    1
    30    30    31    1
    31    31    32    1
    32    32    33    1
    33    27    23   ar
    34    33    28    1
    35     7     1    1
    36     6     4    1
    37    13     8   ar
@<TRIPOS>MOLECULE
*****
 33 37 0 0 0
SMALL
GASTEIGER

@<TRIPOS>ATOM
      1 N          62.9847   84.5842   14.9839 N.3     1  UNL1       -0.2726
      2 C          64.0161   83.5005   15.0923 C.3     1  UNL1        0.0721
      3 C          64.4017   83.0870   13.7029 C.3     1  UNL1        0.0190
      4 C          63.6085   83.9151   12.7359 C.3     1  UNL1        0.0201
      5 C          64.1851   83.3016   11.4944 C.3     1  UNL1        0.0061
      6 C          63.1537   84.3853   11.3861 C.3     1  UNL1        0.0237
      7 C          62.7328   84.8405   13.5276 C.3     1  UNL1        0.0724
      8 C          62.2956   85.2825   10.5442 C.ar    1  UNL1       -0.0225
      9 C          61.3727   86.2676   11.1984 C.ar    1  UNL1       -0.0043
     10 C          60.5146   87.1647   10.3565 C.ar    1  UNL1        0.0035
     11 C          60.5794   87.0769    8.8605 C.ar    1  UNL1        0.0714
     12 C          61.5023   86.0918    8.2064 C.ar    1  UNL1        0.0035
     13 C          62.3604   85.1946    9.0482 C.ar    1  UNL1       -0.0043
     14 C          59.7213   87.9740    8.0187 C.3     1  UNL1        0.4186
     15 F          58.8632   88.8713    7.1768 F       1  UNL1       -0.1659
     16 F          59.2527   86.7867    7.2310 F       1  UNL1       -0.1659
     17 F          60.1900   89.1614    8.8063 F       1  UNL1       -0.1659
     18 C          62.3216   85.2881   16.1306 C.3     1  UNL1        0.0730
     19 C          63.1546   85.9011   17.2171 C.3     1  UNL1        0.0294
     20 C          62.9238   87.3258   17.6258 C.3     1  UNL1        0.0666
     21 S          62.3254   88.2977   16.6526 S.3     1  UNL1       -0.0756
     22 C          64.2699   88.4729   14.0376 C.3     1  UNL1        0.1337
     23 N          64.0028   89.5803   15.0135 N.ar    1  UNL1       -0.2918
     24 C          63.1090   89.4998   16.2155 C.ar    1  UNL1        0.1930
     25 N          63.1364   90.8323   16.9036 N.ar    1  UNL1       -0.1224
     26 N          64.0471   91.7364   16.1269 N.ar    1  UNL1       -0.1328
     27 C          64.5826   90.9627   14.9588 C.ar    1  UNL1        0.1434
     28 C          65.5313   91.4804   13.9185 C.3     1  UNL1        0.0638
     29 C          65.0056   91.9742   12.6033 C.3     1  UNL1        0.0397
     30 C          65.9542   92.4919   11.5631 C.3     1  UNL1        0.1426
     31 O          67.4287   92.5157   11.8382 O.3     1  UNL1       -0.3538
     32 C          67.9544   92.0218   13.1534 C.3     1  UNL1        0.1426
     33 C          67.0056   91.5042   14.1936 C.3     1  UNL1        0.0397
@<TRIPOS>BOND
     1    22    23    1
     2    23    24   ar
     3    24    21    1
     4    21    20    1
     5    20    19    1
     6    19    18    1
     7    18     1    1
     8     1     2    1
     9     2     3    1
    10     4     3    1
    11     4     5    1
    12     5     6    1
    13     6     8    1
    14     8     9   ar
    15     9    10   ar
    16    10    11   ar
    17    11    14    1
    18    14    15    1
    19    14    16    1
    20    14    17    1
    21    11    12   ar
    22    12    13   ar
    23     4     7    1
    24    24    25   ar
    25    25    26   ar
    26    26    27   ar
    27    27    28    1
    28    28    29    1
    29    29    30    1
    30    30    31    1
    31    31    32    1
    32    32    33    1
    33    27    23   ar
    34    33    28    1
    35     7     1    1
    36     6     4    1
    37    13     8   ar
@<TRIPOS>MOLECULE
*****
 33 37 0 0 0
SMALL
GASTEIGER

@<TRIPOS>ATOM
      1 N          62.1309   86.4379    8.9297 N.3     1  UNL1       -0.2726
      2 C          60.6818   86.3550    8.5511 C.3     1  UNL1        0.0721
      3 C          60.0036   87.6012    9.0380 C.3     1  UNL1        0.0190
      4 C          61.0335   88.4542    9.7175 C.3     1  UNL1        0.0201
      5 C          60.0991   89.5708   10.0781 C.3     1  UNL1        0.0061
      6 C          61.5481   89.6537   10.4567 C.3     1  UNL1        0.0237
      7 C          62.3482   87.7353    9.6505 C.3     1  UNL1        0.0724
      8 C          62.6819   90.3941   11.1020 C.ar    1  UNL1       -0.0225
      9 C          63.0262   90.1342   12.5387 C.ar    1  UNL1       -0.0043
     10 C          64.1599   90.8745   13.1840 C.ar    1  UNL1        0.0035
     11 C          64.9495   91.8747   12.3926 C.ar    1  UNL1        0.0714
     12 C          64.6052   92.1346   10.9559 C.ar    1  UNL1        0.0035
     13 C          63.4714   91.3942   10.3106 C.ar    1  UNL1       -0.0043
     14 C          66.0832   92.6151   13.0379 C.3     1  UNL1        0.4186
     15 F          67.2171   93.3554   13.6832 F       1  UNL1       -0.1659
     16 F          65.7140   93.8497   12.2702 F       1  UNL1       -0.1659
     17 F          66.4525   91.3805   13.8055 F       1  UNL1       -0.1659
     18 C          63.1787   85.4048    8.6385 C.3     1  UNL1        0.0730
     19 C          63.0154   84.0053    9.1528 C.3     1  UNL1        0.0294
     20 C          63.9938   83.4522   10.1463 C.3     1  UNL1        0.0666
     21 S          63.5060   82.6252   11.2986 S.3     1  UNL1       -0.0756
     22 C          62.7102   85.5915   12.4018 C.3     1  UNL1        0.1337
     23 N          63.3156   84.4830   13.2110 N.ar    1  UNL1       -0.2918
     24 C          63.6814   83.1195   12.7039 C.ar    1  UNL1        0.1930
     25 N          64.2534   82.3372   13.8488 N.ar    1  UNL1       -0.1224
     26 N          64.2411   83.2172   15.0635 N.ar    1  UNL1       -0.1328
     27 C          63.6616   84.5434   14.6693 C.ar    1  UNL1        0.1434
     28 C          63.4628   85.7229   15.5746 C.3     1  UNL1        0.0638
     29 C          62.7345   85.5558   16.8752 C.3     1  UNL1        0.0397
     30 C          62.5358   86.7352   17.7804 C.3     1  UNL1        0.1426
     31 O          63.0655   88.0818   17.3849 O.3     1  UNL1       -0.3538
     32 C          63.7938   88.2489   16.0843 C.3     1  UNL1        0.1426
     33 C          63.9925   87.0693   15.1791 C.3     1  UNL1        0.0397
@<TRIPOS>BOND
     1    22    23    1
     2    23    24   ar
     3    24    21    1
     4    21    20    1
     5    20    19    1
     6    19    18    1
     7    18     1    1
     8     1     2    1
     9     2     3    1
    10     4     3    1
    11     4     5    1
    12     5     6    1
    13     6     8    1
    14     8     9   ar
    15     9    10   ar
    16    10    11   ar
    17    11    14    1
    18    14    15    1
    19    14    16    1
    20    14    17    1
    21    11    12   ar
    22    12    13   ar
    23     4     7    1
    24    24    25   ar
    25    25    26   ar
    26    26    27   ar
    27    27    28    1
    28    28    29    1
    29    29    30    1
    30    30    31    1
    31    31    32    1
    32    32    33    1
    33    27    23   ar
    34    33    28    1
    35     7     1    1
    36     6     4    1
    37    13     8   ar
@<TRIPOS>MOLECULE
*****
 33 37 0 0 0
SMALL
GASTEIGER

@<TRIPOS>ATOM
      1 N          62.3440   85.7772    9.4433 N.3     1  UNL1       -0.2726
      2 C          62.9130   84.6660    8.6117 C.3     1  UNL1        0.0721
      3 C          63.6422   83.7283    9.5277 C.3     1  UNL1        0.0190
      4 C          63.5238   84.2599   10.9253 C.3     1  UNL1        0.0201
      5 C          64.3122   83.1631   11.5776 C.3     1  UNL1        0.0061
      6 C          63.7432   84.2743   12.4091 C.3     1  UNL1        0.0237
      7 C          62.7215   85.5262   10.8732 C.3     1  UNL1        0.0724
      8 C          63.5414   84.9241   13.7459 C.ar    1  UNL1       -0.0225
      9 C          64.3078   86.1638   14.1006 C.ar    1  UNL1       -0.0043
     10 C          64.1060   86.8137   15.4373 C.ar    1  UNL1        0.0035
     11 C          63.1377   86.2239   16.4194 C.ar    1  UNL1        0.0714
     12 C          62.3712   84.9842   16.0647 C.ar    1  UNL1        0.0035
     13 C          62.5731   84.3343   14.7280 C.ar    1  UNL1       -0.0043
     14 C          62.9358   86.8737   17.7561 C.3     1  UNL1        0.4186
     15 F          62.7339   87.5236   19.0930 F       1  UNL1       -0.1659
     16 F          63.4003   88.1827   17.1899 F       1  UNL1       -0.1659
     17 F          62.4713   85.5647   18.3224 F       1  UNL1       -0.1659
     18 C          61.5388   86.9359    8.9344 C.3     1  UNL1        0.0730
     19 C          60.1895   87.2270    9.5214 C.3     1  UNL1        0.0294
     20 C          60.0027   88.4130   10.4206 C.3     1  UNL1        0.0666
     21 S          60.9351   89.5837   10.3214 S.3     1  UNL1       -0.0756
     22 C          63.5624   91.5130   10.1636 C.3     1  UNL1        0.1337
     23 N          63.0751   90.7848   11.3811 N.ar    1  UNL1       -0.2918
     24 C          61.8675   89.8980   11.4536 C.ar    1  UNL1        0.1930
     25 N          61.7558   89.3807   12.8571 N.ar    1  UNL1       -0.1224
     26 N          62.8945   89.9477   13.6521 N.ar    1  UNL1       -0.1328
     27 C          63.7099   90.8155   12.7399 C.ar    1  UNL1        0.1434
     28 C          64.9434   91.5798   13.1197 C.3     1  UNL1        0.0638
     29 C          65.3645   92.7727   12.3137 C.3     1  UNL1        0.0397
     30 C          66.5980   93.5370   12.6936 C.3     1  UNL1        0.1426
     31 O          67.4104   93.1083   13.8795 O.3     1  UNL1       -0.3538
     32 C          66.9893   91.9155   14.6856 C.3     1  UNL1        0.1426
     33 C          65.7557   91.1512   14.3056 C.3     1  UNL1        0.0397
@<TRIPOS>BOND
     1    22    23    1
     2    23    24   ar
     3    24    21    1
     4    21    20    1
     5    20    19    1
     6    19    18    1
     7    18     1    1
     8     1     2    1
     9     2     3    1
    10     4     3    1
    11     4     5    1
    12     5     6    1
    13     6     8    1
    14     8     9   ar
    15     9    10   ar
    16    10    11   ar
    17    11    14    1
    18    14    15    1
    19    14    16    1
    20    14    17    1
    21    11    12   ar
    22    12    13   ar
    23     4     7    1
    24    24    25   ar
    25    25    26   ar
    26    26    27   ar
    27    27    28    1
    28    28    29    1
    29    29    30    1
    30    30    31    1
    31    31    32    1
    32    32    33    1
    33    27    23   ar
    34    33    28    1
    35     7     1    1
    36     6     4    1
    37    13     8   ar
@<TRIPOS>MOLECULE
*****
 33 37 0 0 0
SMALL
GASTEIGER

@<TRIPOS>ATOM
      1 N          63.3854   90.3856   14.9378 N.3     1  UNL1       -0.2726
      2 C          64.5079   91.3797   14.9783 C.3     1  UNL1        0.0721
      3 C          64.8381   91.7637   13.5663 C.3     1  UNL1        0.0190
      4 C          63.9196   91.0070   12.6532 C.3     1  UNL1        0.0201
      5 C          64.4656   91.5741   11.3764 C.3     1  UNL1        0.0061
      6 C          63.3430   90.5800   11.3359 C.3     1  UNL1        0.0237
      7 C          63.0218   90.1552   13.5008 C.3     1  UNL1        0.0724
      8 C          62.3621   89.7595   10.5520 C.ar    1  UNL1       -0.0225
      9 C          61.0859   90.3793   10.0650 C.ar    1  UNL1       -0.0043
     10 C          60.1050   89.5588    9.2811 C.ar    1  UNL1        0.0035
     11 C          60.4002   88.1185    8.9843 C.ar    1  UNL1        0.0714
     12 C          61.6764   87.4986    9.4713 C.ar    1  UNL1        0.0035
     13 C          62.6573   88.3191   10.2552 C.ar    1  UNL1       -0.0043
     14 C          59.4193   87.2980    8.2004 C.3     1  UNL1        0.4186
     15 F          58.4383   86.4774    7.4165 F       1  UNL1       -0.1659
     16 F          58.8016   88.5532    7.6595 F       1  UNL1       -0.1659
     17 F          60.0370   86.0427    8.7413 F       1  UNL1       -0.1659
     18 C          62.7398   89.7358   16.1256 C.3     1  UNL1        0.0730
     19 C          63.3975   88.5616   16.7878 C.3     1  UNL1        0.0294
     20 C          62.5632   87.4250   17.3001 C.3     1  UNL1        0.0666
     21 S          63.1189   86.0318   17.3103 S.3     1  UNL1       -0.0756
     22 C          64.4354   86.3259   14.3388 C.3     1  UNL1        0.1337
     23 N          63.4822   85.2545   14.7787 N.ar    1  UNL1       -0.2918
     24 C          62.8771   85.1194   16.1446 C.ar    1  UNL1        0.1930
     25 N          61.9876   83.9116   16.1401 N.ar    1  UNL1       -0.1224
     26 N          62.0430   83.3002   14.7715 N.ar    1  UNL1       -0.1328
     27 C          62.9667   84.1302   13.9300 C.ar    1  UNL1        0.1434
     28 C          63.3139   83.8798   12.4924 C.3     1  UNL1        0.0638
     29 C          64.2854   82.7948   12.1335 C.3     1  UNL1        0.0397
     30 C          64.6326   82.5444   10.6959 C.3     1  UNL1        0.1426
     31 O          64.0083   83.3791    9.6172 O.3     1  UNL1       -0.3538
     32 C          63.0368   84.4642    9.9761 C.3     1  UNL1        0.1426
     33 C          62.6896   84.7145   11.4138 C.3     1  UNL1        0.0397
@<TRIPOS>BOND
     1    22    23    1
     2    23    24   ar
     3    24    21    1
     4    21    20    1
     5    20    19    1
     6    19    18    1
     7    18     1    1
     8     1     2    1
     9     2     3    1
    10     4     3    1
    11     4     5    1
    12     5     6    1
    13     6     8    1
    14     8     9   ar
    15     9    10   ar
    16    10    11   ar
    17    11    14    1
    18    14    15    1
    19    14    16    1
    20    14    17    1
    21    11    12   ar
    22    12    13   ar
    23     4     7    1
    24    24    25   ar
    25    25    26   ar
    26    26    27   ar
    27    27    28    1
    28    28    29    1
    29    29    30    1
    30    30    31    1
    31    31    32    1
    32    32    33    1
    33    27    23   ar
    34    33    28    1
    35     7     1    1
    36     6     4    1
    37    13     8   ar
@<TRIPOS>MOLECULE
*****
 33 37 0 0 0
SMALL
GASTEIGER

@<TRIPOS>ATOM
      1 N          61.7444   89.2811   11.2690 N.3     1  UNL1       -0.2726
      2 C          61.2602   89.7872    9.9426 C.3     1  UNL1        0.0721
      3 C          61.2018   88.6249    8.9963 C.3     1  UNL1        0.0190
      4 C          61.6499   87.4004    9.7378 C.3     1  UNL1        0.0201
      5 C          61.4909   86.4527    8.5861 C.3     1  UNL1        0.0061
      6 C          61.9751   85.9465    9.9125 C.3     1  UNL1        0.0237
      7 C          61.9853   87.8059   11.1425 C.3     1  UNL1        0.0724
      8 C          62.4424   84.8149   10.7792 C.ar    1  UNL1       -0.0225
      9 C          63.1313   83.6334   10.1631 C.ar    1  UNL1       -0.0043
     10 C          63.5986   82.5018   11.0298 C.ar    1  UNL1        0.0035
     11 C          63.3770   82.5518   12.5125 C.ar    1  UNL1        0.0714
     12 C          62.6881   83.7333   13.1285 C.ar    1  UNL1        0.0035
     13 C          62.2208   84.8649   12.2618 C.ar    1  UNL1       -0.0043
     14 C          63.8443   81.4202   13.3791 C.3     1  UNL1        0.4186
     15 F          64.3116   80.2885   14.2458 F       1  UNL1       -0.1659
     16 F          64.3998   82.4047   14.3651 F       1  UNL1       -0.1659
     17 F          63.2887   80.4357   12.3932 F       1  UNL1       -0.1659
     18 C          61.9514   90.1053   12.5051 C.3     1  UNL1        0.0730
     19 C          63.0543   89.7596   13.4611 C.3     1  UNL1        0.0294
     20 C          63.6785   90.8309   14.3053 C.3     1  UNL1        0.0666
     21 S          65.1510   91.0997   14.2080 S.3     1  UNL1       -0.0756
     22 C          64.9026   91.9622   11.0705 C.3     1  UNL1        0.1337
     23 N          65.5266   92.7793   12.1627 N.ar    1  UNL1       -0.2918
     24 C          65.6408   92.3828   13.6049 C.ar    1  UNL1        0.1930
     25 N          66.3309   93.4947   14.3381 N.ar    1  UNL1       -0.1224
     26 N          66.6431   94.5784   13.3490 N.ar    1  UNL1       -0.1328
     27 C          66.1461   94.1363   12.0046 C.ar    1  UNL1        0.1434
     28 C          66.2503   94.9144   10.7264 C.3     1  UNL1        0.0638
     29 C          67.2693   94.5298    9.6951 C.3     1  UNL1        0.0397
     30 C          67.3735   95.3080    8.4170 C.3     1  UNL1        0.1426
     31 O          66.4585   96.4708    8.1703 O.3     1  UNL1       -0.3538
     32 C          65.4395   96.8554    9.2016 C.3     1  UNL1        0.1426
     33 C          65.3354   96.0772   10.4797 C.3     1  UNL1        0.0397
@<TRIPOS>BOND
     1    22    23    1
     2    23    24   ar
     3    24    21    1
     4    21    20    1
     5    20    19    1
     6    19    18    1
     7    18     1    1
     8     1     2    1
     9     2     3    1
    10     4     3    1
    11     4     5    1
    12     5     6    1
    13     6     8    1
    14     8     9   ar
    15     9    10   ar
    16    10    11   ar
    17    11    14    1
    18    14    15    1
    19    14    16    1
    20    14    17    1
    21    11    12   ar
    22    12    13   ar
    23     4     7    1
    24    24    25   ar
    25    25    26   ar
    26    26    27   ar
    27    27    28    1
    28    28    29    1
    29    29    30    1
    30    30    31    1
    31    31    32    1
    32    32    33    1
    33    27    23   ar
    34    33    28    1
    35     7     1    1
    36     6     4    1
    37    13     8   ar
@<TRIPOS>MOLECULE
*****
 33 37 0 0 0
SMALL
GASTEIGER

@<TRIPOS>ATOM
      1 N          62.1396   85.8113    9.2762 N.3     1  UNL1       -0.2726
      2 C          62.7927   84.8376    8.3405 C.3     1  UNL1        0.0721
      3 C          63.6102   83.8841    9.1605 C.3     1  UNL1        0.0190
      4 C          63.4625   84.2684   10.6029 C.3     1  UNL1        0.0201
      5 C          64.3497   83.1872   11.1449 C.3     1  UNL1        0.0061
      6 C          63.6967   84.1609   12.0806 C.3     1  UNL1        0.0237
      7 C          62.5536   85.4595   10.6744 C.3     1  UNL1        0.0724
      8 C          63.4548   84.6611   13.4739 C.ar    1  UNL1       -0.0225
      9 C          62.3550   84.0676   14.3035 C.ar    1  UNL1       -0.0043
     10 C          62.1132   84.5677   15.6968 C.ar    1  UNL1        0.0035
     11 C          62.9712   85.6613   16.2605 C.ar    1  UNL1        0.0714
     12 C          64.0710   86.2548   15.4310 C.ar    1  UNL1        0.0035
     13 C          64.3128   85.7547   14.0376 C.ar    1  UNL1       -0.0043
     14 C          62.7293   86.1614   17.6538 C.3     1  UNL1        0.4186
     15 F          62.4875   86.6616   19.0472 F       1  UNL1       -0.1659
     16 F          64.1520   85.8495   18.0127 F       1  UNL1       -0.1659
     17 F          61.3067   86.4734   17.2950 F       1  UNL1       -0.1659
     18 C          61.2320   86.9389    8.8827 C.3     1  UNL1        0.0730
     19 C          61.0273   88.0968    9.8140 C.3     1  UNL1        0.0294
     20 C          62.1601   89.0368   10.1024 C.3     1  UNL1        0.0666
     21 S          62.2105   89.7721   11.4088 S.3     1  UNL1       -0.0756
     22 C          63.9804   89.7266   14.1501 C.3     1  UNL1        0.1337
     23 N          64.1874   90.6447   12.9821 N.ar    1  UNL1       -0.2918
     24 C          63.3739   90.6656   11.7221 C.ar    1  UNL1        0.1930
     25 N          63.9280   91.7369   10.8303 N.ar    1  UNL1       -0.1224
     26 N          65.0840   92.3781   11.5391 N.ar    1  UNL1       -0.1328
     27 C          65.2444   91.7031   12.8691 C.ar    1  UNL1        0.1434
     28 C          66.2799   92.0292   13.9042 C.3     1  UNL1        0.0638
     29 C          65.8578   92.4699   15.2744 C.3     1  UNL1        0.0397
     30 C          66.8933   92.7960   16.3095 C.3     1  UNL1        0.1426
     31 O          68.3509   92.6813   15.9743 O.3     1  UNL1       -0.3538
     32 C          68.7730   92.2406   14.6040 C.3     1  UNL1        0.1426
     33 C          67.7374   91.9145   13.5690 C.3     1  UNL1        0.0397
@<TRIPOS>BOND
     1    22    23    1
     2    23    24   ar
     3    24    21    1
     4    21    20    1
     5    20    19    1
     6    19    18    1
     7    18     1    1
     8     1     2    1
     9     2     3    1
    10     4     3    1
    11     4     5    1
    12     5     6    1
    13     6     8    1
    14     8     9   ar
    15     9    10   ar
    16    10    11   ar
    17    11    14    1
    18    14    15    1
    19    14    16    1
    20    14    17    1
    21    11    12   ar
    22    12    13   ar
    23     4     7    1
    24    24    25   ar
    25    25    26   ar
    26    26    27   ar
    27    27    28    1
    28    28    29    1
    29    29    30    1
    30    30    31    1
    31    31    32    1
    32    32    33    1
    33    27    23   ar
    34    33    28    1
    35     7     1    1
    36     6     4    1
    37    13     8   ar
@<TRIPOS>MOLECULE
*****
 33 37 0 0 0
SMALL
GASTEIGER

@<TRIPOS>ATOM
      1 N          60.1779   88.9779    9.5324 N.3     1  UNL1       -0.2726
      2 C          59.7571   88.8878    8.0954 C.3     1  UNL1        0.0721
      3 C          60.2181   87.5648    7.5596 C.3     1  UNL1        0.0190
      4 C          60.9237   86.8372    8.6654 C.3     1  UNL1        0.0201
      5 C          61.2515   85.6128    7.8633 C.3     1  UNL1        0.0061
      6 C          61.6722   85.7029    9.3002 C.3     1  UNL1        0.0237
      7 C          60.8988   87.7106    9.8846 C.3     1  UNL1        0.0724
      8 C          62.3472   85.1000   10.4964 C.ar    1  UNL1       -0.0225
      9 C          62.0261   85.6041   11.8722 C.ar    1  UNL1       -0.0043
     10 C          62.7011   85.0012   13.0684 C.ar    1  UNL1        0.0035
     11 C          63.6973   83.8943   12.8887 C.ar    1  UNL1        0.0714
     12 C          64.0185   83.3902   11.5129 C.ar    1  UNL1        0.0035
     13 C          63.3435   83.9931   10.3168 C.ar    1  UNL1       -0.0043
     14 C          64.3724   83.2914   14.0849 C.3     1  UNL1        0.4186
     15 F          65.0475   82.6885   15.2811 F       1  UNL1       -0.1659
     16 F          63.6642   81.9938   13.8306 F       1  UNL1       -0.1659
     17 F          65.0806   84.5890   14.3392 F       1  UNL1       -0.1659
     18 C          59.9225   90.1326   10.4551 C.3     1  UNL1        0.0730
     19 C          60.5773   90.1738   11.8040 C.3     1  UNL1        0.0294
     20 C          62.0165   89.7773   11.9516 C.3     1  UNL1        0.0666
     21 S          62.7912   90.2029   13.1634 S.3     1  UNL1       -0.0756
     22 C          63.8242   91.5629   10.3826 C.3     1  UNL1        0.1337
     23 N          64.3902   91.8117   11.7493 N.ar    1  UNL1       -0.2918
     24 C          63.9154   91.1865   13.0275 C.ar    1  UNL1        0.1930
     25 N          64.7622   91.7177   14.1459 N.ar    1  UNL1       -0.1224
     26 N          65.7604   92.6712   13.5589 N.ar    1  UNL1       -0.1328
     27 C          65.5306   92.7293   12.0777 C.ar    1  UNL1        0.1434
     28 C          66.3050   93.5593   11.0972 C.3     1  UNL1        0.0638
     29 C          66.1230   95.0478   11.0661 C.3     1  UNL1        0.0397
     30 C          66.8975   95.8778   10.0856 C.3     1  UNL1        0.1426
     31 O          67.8539   95.2190    9.1361 O.3     1  UNL1       -0.3538
     32 C          68.0359   93.7304    9.1672 C.3     1  UNL1        0.1426
     33 C          67.2614   92.9005   10.1478 C.3     1  UNL1        0.0397
@<TRIPOS>BOND
     1    22    23    1
     2    23    24   ar
     3    24    21    1
     4    21    20    1
     5    20    19    1
     6    19    18    1
     7    18     1    1
     8     1     2    1
     9     2     3    1
    10     4     3    1
    11     4     5    1
    12     5     6    1
    13     6     8    1
    14     8     9   ar
    15     9    10   ar
    16    10    11   ar
    17    11    14    1
    18    14    15    1
    19    14    16    1
    20    14    17    1
    21    11    12   ar
    22    12    13   ar
    23     4     7    1
    24    24    25   ar
    25    25    26   ar
    26    26    27   ar
    27    27    28    1
    28    28    29    1
    29    29    30    1
    30    30    31    1
    31    31    32    1
    32    32    33    1
    33    27    23   ar
    34    33    28    1
    35     7     1    1
    36     6     4    1
    37    13     8   ar
@<TRIPOS>MOLECULE
*****
 33 37 0 0 0
SMALL
GASTEIGER

@<TRIPOS>ATOM
      1 N          63.2417   90.1755   13.0825 N.3     1  UNL1       -0.2726
      2 C          63.6339   89.5855   14.4046 C.3     1  UNL1        0.0721
      3 C          64.9364   90.2029   14.8197 C.3     1  UNL1        0.0190
      4 C          65.3492   91.1745   13.7541 C.3     1  UNL1        0.0201
      5 C          66.6210   91.6077   14.4210 C.3     1  UNL1        0.0061
      6 C          66.2288   92.1978   13.0989 C.3     1  UNL1        0.0237
      7 C          64.3018   91.1576   12.6804 C.3     1  UNL1        0.0724
      8 C          66.5102   93.1292   11.9573 C.ar    1  UNL1       -0.0225
      9 C          65.9096   94.5037   11.9453 C.ar    1  UNL1       -0.0043
     10 C          66.1910   95.4352   10.8037 C.ar    1  UNL1        0.0035
     11 C          67.0730   94.9921    9.6742 C.ar    1  UNL1        0.0714
     12 C          67.6736   93.6177    9.6863 C.ar    1  UNL1        0.0035
     13 C          67.3922   92.6862   10.8278 C.ar    1  UNL1       -0.0043
     14 C          67.3544   95.9236    8.5326 C.3     1  UNL1        0.4186
     15 F          67.6358   96.8551    7.3910 F       1  UNL1       -0.1659
     16 F          68.0713   96.8524    9.4672 F       1  UNL1       -0.1659
     17 F          66.6375   94.9948    7.5981 F       1  UNL1       -0.1659
     18 C          62.0063   89.8421   12.2999 C.3     1  UNL1        0.0730
     19 C          61.9394   90.1556   10.8345 C.3     1  UNL1        0.0294
     20 C          62.3801   89.1344    9.8281 C.3     1  UNL1        0.0666
     21 S          61.5545   87.9035    9.5976 S.3     1  UNL1       -0.0756
     22 C          61.7349   86.3033   12.4361 C.3     1  UNL1        0.1337
     23 N          62.2401   85.8106   11.1124 N.ar    1  UNL1       -0.2918
     24 C          62.1572   86.5460    9.8078 C.ar    1  UNL1        0.1930
     25 N          62.7828   85.6858    8.7501 N.ar    1  UNL1       -0.1224
     26 N          63.2524   84.4187    9.4011 N.ar    1  UNL1       -0.1328
     27 C          62.9170   84.4957   10.8611 C.ar    1  UNL1        0.1434
     28 C          63.2075   83.4428   11.8892 C.3     1  UNL1        0.0638
     29 C          62.6276   82.0676   11.7390 C.3     1  UNL1        0.0397
     30 C          62.9180   81.0147   12.7671 C.3     1  UNL1        0.1426
     31 O          63.7885   81.3371   13.9455 O.3     1  UNL1       -0.3538
     32 C          64.3684   82.7123   14.0957 C.3     1  UNL1        0.1426
     33 C          64.0779   83.7651   13.0675 C.3     1  UNL1        0.0397
@<TRIPOS>BOND
     1    22    23    1
     2    23    24   ar
     3    24    21    1
     4    21    20    1
     5    20    19    1
     6    19    18    1
     7    18     1    1
     8     1     2    1
     9     2     3    1
    10     4     3    1
    11     4     5    1
    12     5     6    1
    13     6     8    1
    14     8     9   ar
    15     9    10   ar
    16    10    11   ar
    17    11    14    1
    18    14    15    1
    19    14    16    1
    20    14    17    1
    21    11    12   ar
    22    12    13   ar
    23     4     7    1
    24    24    25   ar
    25    25    26   ar
    26    26    27   ar
    27    27    28    1
    28    28    29    1
    29    29    30    1
    30    30    31    1
    31    31    32    1
    32    32    33    1
    33    27    23   ar
    34    33    28    1
    35     7     1    1
    36     6     4    1
    37    13     8   ar
