@<TRIPOS>MOLECULE
*****
 28 30 0 0 0
SMALL
GASTEIGER

@<TRIPOS>ATOM
      1 C          62.4905   89.4114   11.8366 C.ar    1  UNL1        0.0577
      2 C          63.4637   89.4899   12.9754 C.ar    1  UNL1        0.0462
      3 C          64.5164   90.5583   12.9901 C.ar    1  UNL1        0.1602
      4 F          65.4895   90.6369   14.1288 F       1  UNL1       -0.2027
      5 C          64.5959   91.5483   11.8658 C.ar    1  UNL1        0.1534
      6 C          63.6228   91.4697   10.7271 C.ar    1  UNL1        0.0351
      7 C          62.5701   90.4013   10.7125 C.ar    1  UNL1        0.0722
      8 CL         61.5970   90.3227    9.5737 Cl      1  UNL1       -0.0809
      9 S          65.6487   92.6167   11.8805 S.O2    1  UNL1        0.0772
     10 O          65.2074   93.0327   13.2524 O.2     1  UNL1       -0.1498
     11 O          66.0899   92.2007   10.5085 O.2     1  UNL1       -0.1498
     12 N          66.7014   93.6852   11.8951 N.pl3   1  UNL1       -0.1936
     13 H          67.3683   93.7092   12.6188 H       1  UNL1        0.1758
     14 C          66.7379   94.7170   10.8069 C.ar    1  UNL1        0.1786
     15 N          67.7683   94.8177    9.7215 N.ar    1  UNL1       -0.2214
     16 C          67.4177   95.9922    8.8569 C.ar    1  UNL1        0.1079
     17 C          66.1705   96.6174    9.4079 C.ar    1  UNL1        0.0588
     18 S          65.7504   95.8293   10.6131 S.2     1  UNL1       -0.0497
     19 N          61.4378   88.3429   11.8220 N.pl3   1  UNL1       -0.3319
     20 H          60.8442   88.2261   12.5987 H       1  UNL1        0.1468
     21 C          61.2895   87.4525   10.6241 C.3     1  UNL1        0.0870
     22 O          64.5383   82.4258   10.2020 O.2     1  UNL1       -0.2961
     23 C          63.7261   83.6825   10.3075 C.2     1  UNL1        0.1506
     24 C          63.2097   84.1318   11.6422 C.3     1  UNL1        0.0646
     25 C          62.3975   85.3885   11.7477 C.3     1  UNL1        0.0095
     26 C          62.1017   86.1958   10.5186 C.3     1  UNL1        0.0204
     27 C          62.6182   85.7464    9.1839 C.3     1  UNL1        0.0095
     28 C          63.4303   84.4897    9.0784 C.3     1  UNL1        0.0646
@<TRIPOS>BOND
     1    22    23    2
     2    23    24    1
     3    24    25    1
     4    25    26    1
     5    26    21    1
     6    21    19    1
     7    19     1    1
     8     1     2   ar
     9     2     3   ar
    10     3     4    1
    11     3     5   ar
    12     5     9    1
    13     9    10    2
    14     9    11    2
    15     9    12    1
    16    12    14    1
    17    14    15   ar
    18    15    16   ar
    19    16    17   ar
    20    17    18   ar
    21     5     6   ar
    22     6     7   ar
    23     7     8    1
    24    26    27    1
    25    27    28    1
    26    28    23    1
    27     7     1   ar
    28    18    14   ar
    29    19    20    1
    30    12    13    1
@<TRIPOS>MOLECULE
*****
 28 30 0 0 0
SMALL
GASTEIGER

@<TRIPOS>ATOM
      1 C          62.4623   89.0540   11.6940 C.ar    1  UNL1        0.0577
      2 C          63.3914   89.1457   12.8681 C.ar    1  UNL1        0.0462
      3 C          64.3451   90.2979   12.9815 C.ar    1  UNL1        0.1602
      4 F          65.2742   90.3897   14.1555 F       1  UNL1       -0.2027
      5 C          64.3698   91.3583   11.9207 C.ar    1  UNL1        0.1534
      6 C          63.4407   91.2665   10.7467 C.ar    1  UNL1        0.0351
      7 C          62.4870   90.1143   10.6334 C.ar    1  UNL1        0.0722
      8 CL         61.5579   90.0225    9.4594 Cl      1  UNL1       -0.0809
      9 S          65.3235   92.5105   12.0341 S.O2    1  UNL1        0.0772
     10 O          64.9651   92.6647   13.4825 O.2     1  UNL1       -0.1498
     11 O          65.6820   92.3563   10.5858 O.2     1  UNL1       -0.1498
     12 N          66.2773   93.6627   12.1475 N.pl3   1  UNL1       -0.1936
     13 H          66.7103   93.8603   13.0093 H       1  UNL1        0.1758
     14 C          66.5713   94.5138   10.9478 C.ar    1  UNL1        0.1786
     15 N          67.6972   94.3112    9.9775 N.ar    1  UNL1       -0.2214
     16 C          67.6127   95.3890    8.9378 C.ar    1  UNL1        0.1079
     17 C          66.4346   96.2578    9.2655 C.ar    1  UNL1        0.0588
     18 S          65.7910   95.7169   10.5077 S.2     1  UNL1       -0.0497
     19 N          61.5085   87.9018   11.5806 N.pl3   1  UNL1       -0.3319
     20 H          60.5499   88.0369   11.7593 H       1  UNL1        0.1468
     21 C          62.0154   86.5437   11.1951 C.3     1  UNL1        0.0870
     22 O          61.3282   84.5704    5.5707 O.2     1  UNL1       -0.2961
     23 C          61.5000   85.0637    6.9768 C.2     1  UNL1        0.1506
     24 C          60.3877   85.8113    7.6505 C.3     1  UNL1        0.0646
     25 C          60.5595   86.3046    9.0566 C.3     1  UNL1        0.0095
     26 C          61.8436   86.0504    9.7890 C.3     1  UNL1        0.0204
     27 C          62.9559   85.3028    9.1153 C.3     1  UNL1        0.0095
     28 C          62.7841   84.8095    7.7092 C.3     1  UNL1        0.0646
@<TRIPOS>BOND
     1    22    23    2
     2    23    24    1
     3    24    25    1
     4    25    26    1
     5    26    21    1
     6    21    19    1
     7    19     1    1
     8     1     2   ar
     9     2     3   ar
    10     3     4    1
    11     3     5   ar
    12     5     9    1
    13     9    10    2
    14     9    11    2
    15     9    12    1
    16    12    14    1
    17    14    15   ar
    18    15    16   ar
    19    16    17   ar
    20    17    18   ar
    21     5     6   ar
    22     6     7   ar
    23     7     8    1
    24    26    27    1
    25    27    28    1
    26    28    23    1
    27     7     1   ar
    28    18    14   ar
    29    19    20    1
    30    12    13    1
@<TRIPOS>MOLECULE
*****
 28 30 0 0 0
SMALL
GASTEIGER

@<TRIPOS>ATOM
      1 C          61.9524   88.5485   11.4190 C.ar    1  UNL1        0.0577
      2 C          62.9239   88.4776   12.5598 C.ar    1  UNL1        0.0462
      3 C          63.8506   89.6262   12.8281 C.ar    1  UNL1        0.1602
      4 F          64.8221   89.5553   13.9688 F       1  UNL1       -0.2027
      5 C          63.8059   90.8456   11.9557 C.ar    1  UNL1        0.1534
      6 C          62.8344   90.9165   10.8150 C.ar    1  UNL1        0.0351
      7 C          61.9077   89.7679   10.5466 C.ar    1  UNL1        0.0722
      8 CL         60.9363   89.8388    9.4059 Cl      1  UNL1       -0.0809
      9 S          64.7326   91.9942   12.2241 S.O2    1  UNL1        0.0772
     10 O          64.3107   91.9982   13.6635 O.2     1  UNL1       -0.1498
     11 O          65.1545   91.9901   10.7846 O.2     1  UNL1       -0.1498
     12 N          65.6593   93.1427   12.4924 N.pl3   1  UNL1       -0.1936
     13 H          65.5870   93.9682   11.9608 H       1  UNL1        0.1758
     14 C          66.6962   93.0336   13.5709 C.ar    1  UNL1        0.1786
     15 N          66.8364   93.9442   14.7546 N.ar    1  UNL1       -0.2214
     16 C          68.0018   93.4681   15.5702 C.ar    1  UNL1        0.1079
     17 C          68.5819   92.2633   14.8906 C.ar    1  UNL1        0.0588
     18 S          67.7750   91.9947   13.6549 S.2     1  UNL1       -0.0497
     19 N          61.0257   87.4000   11.1506 N.pl3   1  UNL1       -0.3319
     20 H          60.1503   87.3586   11.5992 H       1  UNL1        0.1468
     21 C          61.4327   86.3145   10.1988 C.3     1  UNL1        0.0870
     22 O          65.0835   81.9234   12.0400 O.2     1  UNL1       -0.2961
     23 C          64.1708   83.0211   11.5797 C.2     1  UNL1        0.1506
     24 C          63.3451   83.7778   12.5775 C.3     1  UNL1        0.0646
     25 C          62.4324   84.8756   12.1172 C.3     1  UNL1        0.0095
     26 C          62.3454   85.2167   10.6591 C.3     1  UNL1        0.0204
     27 C          63.1711   84.4600    9.6613 C.3     1  UNL1        0.0095
     28 C          64.0838   83.3622   10.1216 C.3     1  UNL1        0.0646
@<TRIPOS>BOND
     1    22    23    2
     2    23    24    1
     3    24    25    1
     4    25    26    1
     5    26    21    1
     6    21    19    1
     7    19     1    1
     8     1     2   ar
     9     2     3   ar
    10     3     4    1
    11     3     5   ar
    12     5     9    1
    13     9    10    2
    14     9    11    2
    15     9    12    1
    16    12    14    1
    17    14    15   ar
    18    15    16   ar
    19    16    17   ar
    20    17    18   ar
    21     5     6   ar
    22     6     7   ar
    23     7     8    1
    24    26    27    1
    25    27    28    1
    26    28    23    1
    27     7     1   ar
    28    18    14   ar
    29    19    20    1
    30    12    13    1
@<TRIPOS>MOLECULE
*****
 28 30 0 0 0
SMALL
GASTEIGER

@<TRIPOS>ATOM
      1 C          61.9567   88.7901   11.5864 C.ar    1  UNL1        0.0577
      2 C          62.9570   88.6720   12.6980 C.ar    1  UNL1        0.0462
      3 C          63.9469   89.7735   12.9363 C.ar    1  UNL1        0.1602
      4 F          64.9472   89.6554   14.0478 F       1  UNL1       -0.2027
      5 C          63.9365   90.9931   12.0631 C.ar    1  UNL1        0.1534
      6 C          62.9362   91.1112   10.9516 C.ar    1  UNL1        0.0351
      7 C          61.9464   90.0097   10.7132 C.ar    1  UNL1        0.0722
      8 CL         60.9461   90.1277    9.6018 Cl      1  UNL1       -0.0809
      9 S          64.9264   92.0946   12.3014 S.O2    1  UNL1        0.0772
     10 O          64.4984   92.1686   13.7371 O.2     1  UNL1       -0.1498
     11 O          65.3544   92.0206   10.8656 O.2     1  UNL1       -0.1498
     12 N          65.9163   93.1961   12.5397 N.pl3   1  UNL1       -0.1936
     13 H          65.9139   93.9935   11.9623 H       1  UNL1        0.1758
     14 C          66.9099   93.0826   13.6578 C.ar    1  UNL1        0.1786
     15 N          67.0815   94.0551   14.7869 N.ar    1  UNL1       -0.2214
     16 C          68.1839   93.5504   15.6700 C.ar    1  UNL1        0.1079
     17 C          68.6936   92.2658   15.0866 C.ar    1  UNL1        0.0588
     18 S          67.9063   91.9768   13.8430 S.2     1  UNL1       -0.0497
     19 N          60.9668   87.6886   11.3481 N.pl3   1  UNL1       -0.3319
     20 H          60.0014   87.8786   11.3819 H       1  UNL1        0.1468
     21 C          61.4478   86.2977   11.0584 C.3     1  UNL1        0.0870
     22 O          62.0777   84.4629    5.3806 O.2     1  UNL1       -0.2961
     23 C          61.9202   84.9216    6.8000 C.2     1  UNL1        0.1506
     24 C          63.0121   84.6662    7.7963 C.3     1  UNL1        0.0646
     25 C          62.8546   85.1249    9.2157 C.3     1  UNL1        0.0095
     26 C          61.6053   85.8390    9.6389 C.3     1  UNL1        0.0204
     27 C          60.5134   86.0944    8.6427 C.3     1  UNL1        0.0095
     28 C          60.6709   85.6357    7.2233 C.3     1  UNL1        0.0646
@<TRIPOS>BOND
     1    22    23    2
     2    23    24    1
     3    24    25    1
     4    25    26    1
     5    26    21    1
     6    21    19    1
     7    19     1    1
     8     1     2   ar
     9     2     3   ar
    10     3     4    1
    11     3     5   ar
    12     5     9    1
    13     9    10    2
    14     9    11    2
    15     9    12    1
    16    12    14    1
    17    14    15   ar
    18    15    16   ar
    19    16    17   ar
    20    17    18   ar
    21     5     6   ar
    22     6     7   ar
    23     7     8    1
    24    26    27    1
    25    27    28    1
    26    28    23    1
    27     7     1   ar
    28    18    14   ar
    29    19    20    1
    30    12    13    1
@<TRIPOS>MOLECULE
*****
 28 30 0 0 0
SMALL
GASTEIGER

@<TRIPOS>ATOM
      1 C          63.8759   88.3613   15.2048 C.ar    1  UNL1        0.0577
      2 C          64.1245   87.5535   13.9655 C.ar    1  UNL1        0.0462
      3 C          63.8629   86.0765   13.9680 C.ar    1  UNL1        0.1602
      4 F          64.1115   85.2687   12.7288 F       1  UNL1       -0.2027
      5 C          63.3526   85.4073   15.2097 C.ar    1  UNL1        0.1534
      6 C          63.1039   86.2151   16.4489 C.ar    1  UNL1        0.0351
      7 C          63.3656   87.6921   16.4464 C.ar    1  UNL1        0.0722
      8 CL         63.1169   88.4999   17.6856 Cl      1  UNL1       -0.0809
      9 S          63.0909   83.9303   15.2122 S.O2    1  UNL1        0.0772
     10 O          64.5571   83.6709   15.3939 O.2     1  UNL1       -0.1498
     11 O          61.6248   84.1897   15.0304 O.2     1  UNL1       -0.1498
     12 N          62.8293   82.4533   15.2146 N.pl3   1  UNL1       -0.1936
     13 H          62.6717   81.9827   16.0649 H       1  UNL1        0.1758
     14 C          62.8078   81.6933   13.9215 C.ar    1  UNL1        0.1786
     15 N          63.1799   82.2360   12.5736 N.ar    1  UNL1       -0.2214
     16 C          63.0126   81.1353   11.5683 C.ar    1  UNL1        0.1079
     17 C          62.5371   79.9123   12.2951 C.ar    1  UNL1        0.0588
     18 S          62.4106   80.2571   13.7494 S.2     1  UNL1       -0.0497
     19 N          64.1375   89.8383   15.2024 N.pl3   1  UNL1       -0.3319
     20 H          64.6216   90.2537   15.9523 H       1  UNL1        0.1468
     21 C          63.6616   90.6824   14.0574 C.3     1  UNL1        0.0870
     22 O          67.6364   93.4381   10.5067 O.2     1  UNL1       -0.2961
     23 C          66.6427   92.7492   11.3944 C.2     1  UNL1        0.1506
     24 C          65.2814   92.4022   10.8686 C.3     1  UNL1        0.0646
     25 C          64.2877   91.7133   11.7563 C.3     1  UNL1        0.0095
     26 C          64.6553   91.3713   13.1697 C.3     1  UNL1        0.0204
     27 C          66.0166   91.7182   13.6955 C.3     1  UNL1        0.0095
     28 C          67.0103   92.4072   12.8078 C.3     1  UNL1        0.0646
@<TRIPOS>BOND
     1    22    23    2
     2    23    24    1
     3    24    25    1
     4    25    26    1
     5    26    21    1
     6    21    19    1
     7    19     1    1
     8     1     2   ar
     9     2     3   ar
    10     3     4    1
    11     3     5   ar
    12     5     9    1
    13     9    10    2
    14     9    11    2
    15     9    12    1
    16    12    14    1
    17    14    15   ar
    18    15    16   ar
    19    16    17   ar
    20    17    18   ar
    21     5     6   ar
    22     6     7   ar
    23     7     8    1
    24    26    27    1
    25    27    28    1
    26    28    23    1
    27     7     1   ar
    28    18    14   ar
    29    19    20    1
    30    12    13    1
@<TRIPOS>MOLECULE
*****
 28 30 0 0 0
SMALL
GASTEIGER

@<TRIPOS>ATOM
      1 C          63.4809   89.4243   13.9208 C.ar    1  UNL1        0.0577
      2 C          63.4583   88.4157   12.8106 C.ar    1  UNL1        0.0462
      3 C          63.5903   86.9544   13.1222 C.ar    1  UNL1        0.1602
      4 F          63.5677   85.9458   12.0121 F       1  UNL1       -0.2027
      5 C          63.7448   86.5016   14.5439 C.ar    1  UNL1        0.1534
      6 C          63.7674   87.5101   15.6540 C.ar    1  UNL1        0.0351
      7 C          63.6354   88.9715   15.3424 C.ar    1  UNL1        0.0722
      8 CL         63.6580   89.9800   16.4525 Cl      1  UNL1       -0.0809
      9 S          63.8768   85.0402   14.8554 S.O2    1  UNL1        0.0772
     10 O          65.3580   85.1271   14.6353 O.2     1  UNL1       -0.1498
     11 O          62.3956   84.9534   15.0756 O.2     1  UNL1       -0.1498
     12 N          64.0088   83.5789   15.1670 N.pl3   1  UNL1       -0.1936
     13 H          64.4366   83.2910   16.0057 H       1  UNL1        0.1758
     14 C          63.4890   82.5561   14.2007 C.ar    1  UNL1        0.1786
     15 N          62.6163   81.3846   14.5415 N.ar    1  UNL1       -0.2214
     16 C          62.3385   80.6297   13.2754 C.ar    1  UNL1        0.1079
     17 C          63.0395   81.3346   12.1521 C.ar    1  UNL1        0.0588
     18 S          63.7505   82.5252   12.7240 S.2     1  UNL1       -0.0497
     19 N          63.3489   90.8856   13.6092 N.pl3   1  UNL1       -0.3319
     20 H          62.5052   91.3555   13.8008 H       1  UNL1        0.1468
     21 C          64.5023   91.6310   13.0059 C.3     1  UNL1        0.0870
     22 O          69.3605   92.8303   16.3164 O.2     1  UNL1       -0.2961
     23 C          68.1459   92.5304   15.4888 C.2     1  UNL1        0.1506
     24 C          66.7789   92.6373   16.0969 C.3     1  UNL1        0.0646
     25 C          65.5644   92.3375   15.2693 C.3     1  UNL1        0.0095
     26 C          65.7168   91.9308   13.8335 C.3     1  UNL1        0.0204
     27 C          67.0838   91.8239   13.2255 C.3     1  UNL1        0.0095
     28 C          68.2984   92.1238   14.0531 C.3     1  UNL1        0.0646
@<TRIPOS>BOND
     1    22    23    2
     2    23    24    1
     3    24    25    1
     4    25    26    1
     5    26    21    1
     6    21    19    1
     7    19     1    1
     8     1     2   ar
     9     2     3   ar
    10     3     4    1
    11     3     5   ar
    12     5     9    1
    13     9    10    2
    14     9    11    2
    15     9    12    1
    16    12    14    1
    17    14    15   ar
    18    15    16   ar
    19    16    17   ar
    20    17    18   ar
    21     5     6   ar
    22     6     7   ar
    23     7     8    1
    24    26    27    1
    25    27    28    1
    26    28    23    1
    27     7     1   ar
    28    18    14   ar
    29    19    20    1
    30    12    13    1
@<TRIPOS>MOLECULE
*****
 28 30 0 0 0
SMALL
GASTEIGER

@<TRIPOS>ATOM
      1 C          62.2777   85.5891   10.1565 C.ar    1  UNL1        0.0577
      2 C          61.3255   86.5081   10.8628 C.ar    1  UNL1        0.0462
      3 C          60.3625   87.3427   10.0714 C.ar    1  UNL1        0.1602
      4 F          59.4103   88.2616   10.7777 F       1  UNL1       -0.2027
      5 C          60.3518   87.2582    8.5738 C.ar    1  UNL1        0.1534
      6 C          61.3040   86.3393    7.8676 C.ar    1  UNL1        0.0351
      7 C          62.2669   85.5047    8.6589 C.ar    1  UNL1        0.0722
      8 CL         63.2191   84.5858    7.9527 Cl      1  UNL1       -0.0809
      9 S          59.3888   88.0928    7.7825 S.O2    1  UNL1        0.0772
     10 O          58.7031   86.8476    7.3036 O.2     1  UNL1       -0.1498
     11 O          60.0745   89.3380    8.2614 O.2     1  UNL1       -0.1498
     12 N          58.4258   88.9274    6.9912 N.pl3   1  UNL1       -0.1936
     13 H          57.4569   88.7753    7.0767 H       1  UNL1        0.1758
     14 C          58.9392   89.9938    6.0695 C.ar    1  UNL1        0.1786
     15 N          60.3551   90.1446    5.5977 N.ar    1  UNL1       -0.2214
     16 C          60.4177   91.3405    4.6944 C.ar    1  UNL1        0.1079
     17 C          59.0405   91.9287    4.6079 C.ar    1  UNL1        0.0588
     18 S          58.1268   91.0964    5.4578 S.2     1  UNL1       -0.0497
     19 N          63.2407   84.7545   10.9478 N.pl3   1  UNL1       -0.3319
     20 H          64.1884   84.7137   10.6844 H       1  UNL1        0.1468
     21 C          62.7597   83.9823   12.1403 C.3     1  UNL1        0.0870
     22 O          63.4424   86.2457   17.6549 O.2     1  UNL1       -0.2961
     23 C          63.2717   85.6798   16.2763 C.2     1  UNL1        0.1506
     24 C          64.0435   86.2581   15.1274 C.3     1  UNL1        0.0646
     25 C          63.8728   85.6922   13.7487 C.3     1  UNL1        0.0095
     26 C          62.9304   84.5481   13.5190 C.3     1  UNL1        0.0204
     27 C          62.1586   83.9699   14.6679 C.3     1  UNL1        0.0095
     28 C          62.3293   84.5357   16.0465 C.3     1  UNL1        0.0646
@<TRIPOS>BOND
     1    22    23    2
     2    23    24    1
     3    24    25    1
     4    25    26    1
     5    26    21    1
     6    21    19    1
     7    19     1    1
     8     1     2   ar
     9     2     3   ar
    10     3     4    1
    11     3     5   ar
    12     5     9    1
    13     9    10    2
    14     9    11    2
    15     9    12    1
    16    12    14    1
    17    14    15   ar
    18    15    16   ar
    19    16    17   ar
    20    17    18   ar
    21     5     6   ar
    22     6     7   ar
    23     7     8    1
    24    26    27    1
    25    27    28    1
    26    28    23    1
    27     7     1   ar
    28    18    14   ar
    29    19    20    1
    30    12    13    1
@<TRIPOS>MOLECULE
*****
 28 30 0 0 0
SMALL
GASTEIGER

@<TRIPOS>ATOM
      1 C          62.8119   86.9805   11.7372 C.ar    1  UNL1        0.0577
      2 C          63.4895   86.5947   13.0186 C.ar    1  UNL1        0.0462
      3 C          63.9105   87.6545   13.9930 C.ar    1  UNL1        0.1602
      4 F          64.5882   87.2687   15.2744 F       1  UNL1       -0.2027
      5 C          63.6539   89.1002   13.6860 C.ar    1  UNL1        0.1534
      6 C          62.9763   89.4860   12.4046 C.ar    1  UNL1        0.0351
      7 C          62.5552   88.4261   11.4302 C.ar    1  UNL1        0.0722
      8 CL         61.8776   88.8119   10.1489 Cl      1  UNL1       -0.0809
      9 S          64.0749   90.1600   14.6604 S.O2    1  UNL1        0.0772
     10 O          65.4168   90.2390   13.9947 O.2     1  UNL1       -0.1498
     11 O          62.7330   90.0811   15.3261 O.2     1  UNL1       -0.1498
     12 N          64.4959   91.2199   15.6348 N.pl3   1  UNL1       -0.1936
     13 H          64.0662   91.2744   16.5189 H       1  UNL1        0.1758
     14 C          65.5717   92.1966   15.2622 C.ar    1  UNL1        0.1786
     15 N          65.6302   93.0045   13.9996 N.ar    1  UNL1       -0.2214
     16 C          66.8724   93.8441   14.0438 C.ar    1  UNL1        0.1079
     17 C          67.5816   93.5552   15.3336 C.ar    1  UNL1        0.0588
     18 S          66.7777   92.5370   16.0866 S.2     1  UNL1       -0.0497
     19 N          62.3908   85.9207   10.7627 N.pl3   1  UNL1       -0.3319
     20 H          61.5214   85.9893   10.3061 H       1  UNL1        0.1468
     21 C          63.2945   84.7564   10.4841 C.3     1  UNL1        0.0870
     22 O          62.4286   79.5405   13.3204 O.2     1  UNL1       -0.2961
     23 C          62.6451   80.8445   12.6113 C.2     1  UNL1        0.1506
     24 C          62.3392   82.1370   13.3083 C.3     1  UNL1        0.0646
     25 C          62.5557   83.4410   12.5992 C.3     1  UNL1        0.0095
     26 C          63.0780   83.4524   11.1932 C.3     1  UNL1        0.0204
     27 C          63.3839   82.1599   10.4962 C.3     1  UNL1        0.0095
     28 C          63.1674   80.8559   11.2053 C.3     1  UNL1        0.0646
@<TRIPOS>BOND
     1    22    23    2
     2    23    24    1
     3    24    25    1
     4    25    26    1
     5    26    21    1
     6    21    19    1
     7    19     1    1
     8     1     2   ar
     9     2     3   ar
    10     3     4    1
    11     3     5   ar
    12     5     9    1
    13     9    10    2
    14     9    11    2
    15     9    12    1
    16    12    14    1
    17    14    15   ar
    18    15    16   ar
    19    16    17   ar
    20    17    18   ar
    21     5     6   ar
    22     6     7   ar
    23     7     8    1
    24    26    27    1
    25    27    28    1
    26    28    23    1
    27     7     1   ar
    28    18    14   ar
    29    19    20    1
    30    12    13    1
@<TRIPOS>MOLECULE
*****
 28 30 0 0 0
SMALL
GASTEIGER

@<TRIPOS>ATOM
      1 C          59.7365   91.1763    5.1759 C.ar    1  UNL1        0.0577
      2 C          61.1803   91.1813    4.7689 C.ar    1  UNL1        0.0462
      3 C          61.6033   91.8854    3.5138 C.ar    1  UNL1        0.1602
      4 F          63.0469   91.8903    3.1068 F       1  UNL1       -0.2027
      5 C          60.5825   92.5845    2.6657 C.ar    1  UNL1        0.1534
      6 C          59.1388   92.5796    3.0727 C.ar    1  UNL1        0.0351
      7 C          58.7158   91.8755    4.3279 C.ar    1  UNL1        0.0722
      8 CL         57.2721   91.8705    4.7349 Cl      1  UNL1       -0.0809
      9 S          61.0054   93.2887    1.4106 S.O2    1  UNL1        0.0772
     10 O          60.8488   94.6116    2.0999 O.2     1  UNL1       -0.1498
     11 O          61.1621   91.9657    0.7212 O.2     1  UNL1       -0.1498
     12 N          61.4284   93.9928    0.1554 N.pl3   1  UNL1       -0.1936
     13 H          60.7700   94.1718   -0.5543 H       1  UNL1        0.1758
     14 C          62.8546   94.4240   -0.0183 C.ar    1  UNL1        0.1786
     15 N          64.0232   93.9543    0.7963 N.ar    1  UNL1       -0.2214
     16 C          65.2534   94.6406    0.2809 C.ar    1  UNL1        0.1079
     17 C          64.8449   95.5346   -0.8523 C.ar    1  UNL1        0.0588
     18 S          63.3624   95.4007   -1.0372 S.2     1  UNL1       -0.0497
     19 N          59.3135   90.4722    6.4311 N.pl3   1  UNL1       -0.3319
     20 H          58.9768   90.9911    7.1970 H       1  UNL1        0.1468
     21 C          59.4036   88.9776    6.5193 C.3     1  UNL1        0.0870
     22 O          61.2860   86.3796   11.5895 O.2     1  UNL1       -0.2961
     23 C          60.8154   87.0291   10.3219 C.2     1  UNL1        0.1506
     24 C          60.5755   88.5092   10.2819 C.3     1  UNL1        0.0646
     25 C          60.1049   89.1587    9.0144 C.3     1  UNL1        0.0095
     26 C          59.8742   88.3281    7.7868 C.3     1  UNL1        0.0204
     27 C          60.1141   86.8480    7.8269 C.3     1  UNL1        0.0095
     28 C          60.5847   86.1985    9.0944 C.3     1  UNL1        0.0646
@<TRIPOS>BOND
     1    22    23    2
     2    23    24    1
     3    24    25    1
     4    25    26    1
     5    26    21    1
     6    21    19    1
     7    19     1    1
     8     1     2   ar
     9     2     3   ar
    10     3     4    1
    11     3     5   ar
    12     5     9    1
    13     9    10    2
    14     9    11    2
    15     9    12    1
    16    12    14    1
    17    14    15   ar
    18    15    16   ar
    19    16    17   ar
    20    17    18   ar
    21     5     6   ar
    22     6     7   ar
    23     7     8    1
    24    26    27    1
    25    27    28    1
    26    28    23    1
    27     7     1   ar
    28    18    14   ar
    29    19    20    1
    30    12    13    1
