@<TRIPOS>MOLECULE
*****
 38 43 0 0 0
SMALL
GASTEIGER

@<TRIPOS>ATOM
      1 C          61.8333   90.1617   10.6703 C.ar    1  UNL1        0.0513
      2 C          60.3421   90.3186   10.6315 C.ar    1  UNL1        0.0147
      3 C          59.4695   89.1292   10.3600 C.ar    1  UNL1        0.0010
      4 C          60.0881   87.7827   10.1273 C.ar    1  UNL1       -0.0041
      5 C          61.5794   87.6256   10.1661 C.ar    1  UNL1       -0.0172
      6 C          62.4520   88.8151   10.4376 C.ar    1  UNL1        0.0106
      7 O          64.0358   89.9745   12.6986 O.2     1  UNL1       -0.2521
      8 C          63.8072   91.2576   11.9559 C.2     1  UNL1        0.3082
      9 N          62.7059   91.3511   10.9418 N.am    1  UNL1       -0.2681
     10 N          64.6798   92.4470   12.2274 N.am    1  UNL1       -0.2670
     11 H          62.5558   92.1932   10.4544 H       1  UNL1        0.1564
     12 H          64.5297   93.2891   11.7400 H       1  UNL1        0.1565
     13 C          65.7810   92.3535   13.2415 C.ar    1  UNL1        0.0650
     14 C          65.4510   92.1495   14.6904 C.ar    1  UNL1        0.0160
     15 C          66.5522   92.0559   15.7045 C.ar    1  UNL1        0.0014
     16 C          67.9836   92.1664   15.2697 C.ar    1  UNL1        0.0014
     17 C          68.3137   92.3704   13.8208 C.ar    1  UNL1        0.0158
     18 C          67.2124   92.4639   12.8067 C.ar    1  UNL1        0.0615
     19 N          67.5425   92.6679   11.3577 N.pl3   1  UNL1       -0.3065
     20 C          67.0936   93.8171   10.5046 C.3     1  UNL1        0.0909
     21 C          67.6531   93.6180    9.1271 C.3     1  UNL1        0.0232
     22 C          68.4477   92.3457    9.1290 C.3     1  UNL1        0.0232
     23 C          68.3793   91.7586   10.5076 C.3     1  UNL1        0.0909
     24 C          62.1980   86.2791    9.9333 C.3     1  UNL1        0.0693
     25 C          62.7089   85.9138    8.5712 C.3     1  UNL1        0.0128
     26 C          63.3276   84.5672    8.3385 C.3     1  UNL1        0.0513
     27 C          63.4353   83.5861    9.4679 C.3     1  UNL1        0.2020
     28 N          62.9243   83.9514   10.8302 N.pl3   1  UNL1       -0.1929
     29 C          62.3057   85.2979   11.0629 C.3     1  UNL1        0.2062
     30 C          63.0321   82.9702   11.9596 C.2     1  UNL1        0.3205
     31 N          62.6791   81.5293   11.7376 N.2     1  UNL1        0.0097
     32 C          62.7868   80.5482   12.8669 C.2     1  UNL1        0.4717
     33 N          63.2475   81.0078   14.2185 N.2     1  UNL1        0.0158
     34 C          63.6005   82.4486   14.4405 C.2     1  UNL1        0.3714
     35 N          64.0805   83.1890   15.6536 N.2     1  UNL1       -0.0339
     36 C          64.2695   84.6277   15.2738 C.2     1  UNL1        0.2323
     37 C          63.9062   84.7766   13.8261 C.2     1  UNL1        0.0486
     38 C          63.4928   83.4299   13.3111 C.3     1  UNL1        0.2428
@<TRIPOS>BOND
     1     7     8    2
     2     8     9   am
     3     9     1    1
     4     1     2   ar
     5     2     3   ar
     6     3     4   ar
     7     4     5   ar
     8    24     5    1
     9    24    25    1
    10    25    26    1
    11    26    27    1
    12    27    28    1
    13    28    30    1
    14    30    31    2
    15    31    32    1
    16    32    33    2
    17    33    34    1
    18    34    35    2
    19    35    36    1
    20    36    37    2
    21    37    38    1
    22    28    29    1
    23     5     6   ar
    24     8    10   am
    25    10    13    1
    26    13    14   ar
    27    14    15   ar
    28    15    16   ar
    29    16    17   ar
    30    17    18   ar
    31    18    19    1
    32    19    20    1
    33    20    21    1
    34    21    22    1
    35    22    23    1
    36     6     1   ar
    37    18    13   ar
    38    23    19    1
    39    29    24    1
    40    38    30    1
    41    38    34    1
    42     9    11    1
    43    10    12    1
@<TRIPOS>MOLECULE
*****
 38 43 0 0 0
SMALL
GASTEIGER

@<TRIPOS>ATOM
      1 C          61.8369   90.0262    9.8703 C.ar    1  UNL1        0.0513
      2 C          60.4625   90.1460    9.2818 C.ar    1  UNL1        0.0147
      3 C          59.7252   88.9162    8.8415 C.ar    1  UNL1        0.0010
      4 C          60.3625   87.5664    8.9896 C.ar    1  UNL1       -0.0041
      5 C          61.7370   87.4465    9.5781 C.ar    1  UNL1       -0.0172
      6 C          62.4743   88.6764   10.0184 C.ar    1  UNL1        0.0106
      7 O          63.8846   89.8459   12.0554 O.2     1  UNL1       -0.2521
      8 C          63.5980   91.1659   11.4031 C.2     1  UNL1        0.3082
      9 N          62.5742   91.2561   10.3106 N.am    1  UNL1       -0.2681
     10 N          64.3353   92.3957   11.8435 N.am    1  UNL1       -0.2670
     11 H          62.3862   92.1224    9.8825 H       1  UNL1        0.1564
     12 H          64.1472   93.2621   11.4154 H       1  UNL1        0.1565
     13 C          65.3591   92.3056   12.9360 C.ar    1  UNL1        0.0650
     14 C          64.9343   91.9785   14.3369 C.ar    1  UNL1        0.0160
     15 C          65.9580   91.8884   15.4294 C.ar    1  UNL1        0.0014
     16 C          67.4067   92.1253   15.1211 C.ar    1  UNL1        0.0014
     17 C          67.8317   92.4523   13.7202 C.ar    1  UNL1        0.0158
     18 C          66.8079   92.5425   12.6276 C.ar    1  UNL1        0.0615
     19 N          67.2328   92.8696   11.2268 N.pl3   1  UNL1       -0.3065
     20 C          68.0902   92.0131   10.3429 C.3     1  UNL1        0.0909
     21 C          68.2622   92.7247    9.0337 C.3     1  UNL1        0.0232
     22 C          67.5111   94.0210    9.1084 C.3     1  UNL1        0.0232
     23 C          66.8749   94.1104   10.4639 C.3     1  UNL1        0.0909
     24 C          62.3743   86.0967    9.7262 C.3     1  UNL1        0.0693
     25 C          62.7511   85.3074    8.5075 C.3     1  UNL1        0.0128
     26 C          63.3884   83.9576    8.6557 C.3     1  UNL1        0.0513
     27 C          63.6488   83.3971   10.0224 C.3     1  UNL1        0.2020
     28 N          63.2720   84.1864   11.2411 N.pl3   1  UNL1       -0.1929
     29 C          62.6347   85.5362   11.0930 C.3     1  UNL1        0.2062
     30 C          63.5324   83.6259   12.6078 C.2     1  UNL1        0.3205
     31 N          64.1317   84.4952   13.6733 N.2     1  UNL1        0.0097
     32 C          64.3921   83.9347   15.0400 C.2     1  UNL1        0.4717
     33 N          64.0533   82.5048   15.3413 N.2     1  UNL1        0.0158
     34 C          63.4541   81.6355   14.2759 C.2     1  UNL1        0.3714
     35 N          63.0195   80.1999   14.2787 N.2     1  UNL1       -0.0339
     36 C          62.4905   79.8731   12.9136 C.2     1  UNL1        0.2323
     37 C          62.5981   81.1068   12.0672 C.2     1  UNL1        0.0486
     38 C          63.1936   82.1961   12.9091 C.3     1  UNL1        0.2428
@<TRIPOS>BOND
     1     7     8    2
     2     8     9   am
     3     9     1    1
     4     1     2   ar
     5     2     3   ar
     6     3     4   ar
     7     4     5   ar
     8    24     5    1
     9    24    25    1
    10    25    26    1
    11    26    27    1
    12    27    28    1
    13    28    30    1
    14    30    31    2
    15    31    32    1
    16    32    33    2
    17    33    34    1
    18    34    35    2
    19    35    36    1
    20    36    37    2
    21    37    38    1
    22    28    29    1
    23     5     6   ar
    24     8    10   am
    25    10    13    1
    26    13    14   ar
    27    14    15   ar
    28    15    16   ar
    29    16    17   ar
    30    17    18   ar
    31    18    19    1
    32    19    20    1
    33    20    21    1
    34    21    22    1
    35    22    23    1
    36     6     1   ar
    37    18    13   ar
    38    23    19    1
    39    29    24    1
    40    38    30    1
    41    38    34    1
    42     9    11    1
    43    10    12    1
@<TRIPOS>MOLECULE
*****
 38 43 0 0 0
SMALL
GASTEIGER

@<TRIPOS>ATOM
      1 C          60.2353   88.4377    9.7631 C.ar    1  UNL1        0.0513
      2 C          60.1332   86.9727    9.4576 C.ar    1  UNL1        0.0147
      3 C          59.7539   86.5186    8.0792 C.ar    1  UNL1        0.0010
      4 C          59.4765   87.5295    7.0063 C.ar    1  UNL1       -0.0041
      5 C          59.5785   88.9945    7.3117 C.ar    1  UNL1       -0.0172
      6 C          59.9579   89.4487    8.6902 C.ar    1  UNL1        0.0106
      7 O          62.8794   89.7770   10.2264 O.2     1  UNL1       -0.2521
      8 C          61.9367   89.5615   11.3731 C.2     1  UNL1        0.3082
      9 N          60.6146   88.8918   11.1414 N.am    1  UNL1       -0.2681
     10 N          62.3161   90.0156   12.7514 N.am    1  UNL1       -0.2670
     11 H          59.9959   88.7504   11.8940 H       1  UNL1        0.1564
     12 H          61.6973   89.8742   13.5040 H       1  UNL1        0.1565
     13 C          63.6381   90.6853   12.9831 C.ar    1  UNL1        0.0650
     14 C          64.1042   91.7667   12.0540 C.ar    1  UNL1        0.0160
     15 C          65.4262   92.4363   12.2857 C.ar    1  UNL1        0.0014
     16 C          66.2822   92.0246   13.4465 C.ar    1  UNL1        0.0014
     17 C          65.8162   90.9432   14.3757 C.ar    1  UNL1        0.0158
     18 C          64.4942   90.2735   14.1441 C.ar    1  UNL1        0.0615
     19 N          64.0281   89.1922   15.0733 N.pl3   1  UNL1       -0.3065
     20 C          64.2939   87.7238   14.9209 C.3     1  UNL1        0.0909
     21 C          63.6446   87.0134   16.0714 C.3     1  UNL1        0.0232
     22 C          62.9775   88.0428   16.9349 C.3     1  UNL1        0.0232
     23 C          63.2146   89.3893   16.3179 C.3     1  UNL1        0.0909
     24 C          59.3012   90.0054    6.2388 C.3     1  UNL1        0.0693
     25 C          57.9111   90.5363    6.0499 C.3     1  UNL1        0.0128
     26 C          57.6338   91.5473    4.9769 C.3     1  UNL1        0.0513
     27 C          58.7465   92.0272    4.0930 C.3     1  UNL1        0.2020
     28 N          60.1366   91.4962    4.2820 N.pl3   1  UNL1       -0.1929
     29 C          60.4140   90.4854    5.3549 C.3     1  UNL1        0.2062
     30 C          61.2494   91.9762    3.3980 C.2     1  UNL1        0.3205
     31 N          62.6494   91.4862    3.6215 N.2     1  UNL1        0.0097
     32 C          63.7621   91.9662    2.7376 C.2     1  UNL1        0.4717
     33 N          63.4749   92.9362    1.6301 N.2     1  UNL1        0.0158
     34 C          62.0750   93.4262    1.4065 C.2     1  UNL1        0.3714
     35 N          61.4925   94.3762    0.4024 N.2     1  UNL1       -0.0339
     36 C          60.0197   94.4834    0.6659 C.2     1  UNL1        0.2323
     37 C          59.6919   93.5996    1.8327 C.2     1  UNL1        0.0486
     38 C          60.9622   92.9462    2.2905 C.3     1  UNL1        0.2428
@<TRIPOS>BOND
     1     7     8    2
     2     8     9   am
     3     9     1    1
     4     1     2   ar
     5     2     3   ar
     6     3     4   ar
     7     4     5   ar
     8    24     5    1
     9    24    25    1
    10    25    26    1
    11    26    27    1
    12    27    28    1
    13    28    30    1
    14    30    31    2
    15    31    32    1
    16    32    33    2
    17    33    34    1
    18    34    35    2
    19    35    36    1
    20    36    37    2
    21    37    38    1
    22    28    29    1
    23     5     6   ar
    24     8    10   am
    25    10    13    1
    26    13    14   ar
    27    14    15   ar
    28    15    16   ar
    29    16    17   ar
    30    17    18   ar
    31    18    19    1
    32    19    20    1
    33    20    21    1
    34    21    22    1
    35    22    23    1
    36     6     1   ar
    37    18    13   ar
    38    23    19    1
    39    29    24    1
    40    38    30    1
    41    38    34    1
    42     9    11    1
    43    10    12    1
@<TRIPOS>MOLECULE
*****
 38 43 0 0 0
SMALL
GASTEIGER

@<TRIPOS>ATOM
      1 C          61.1825   89.6596   10.6004 C.ar    1  UNL1        0.0513
      2 C          60.0594   89.9015    9.6360 C.ar    1  UNL1        0.0147
      3 C          59.6535   88.8260    8.6723 C.ar    1  UNL1        0.0010
      4 C          60.3708   87.5086    8.6730 C.ar    1  UNL1       -0.0041
      5 C          61.4939   87.2667    9.6374 C.ar    1  UNL1       -0.0172
      6 C          61.8998   88.3422   10.6011 C.ar    1  UNL1        0.0106
      7 O          64.0623   89.9622   11.3845 O.2     1  UNL1       -0.2521
      8 C          63.0283   90.8864   11.9561 C.2     1  UNL1        0.3082
      9 N          61.5884   90.7351   11.5640 N.am    1  UNL1       -0.2681
     10 N          63.4342   91.9618   12.9198 N.am    1  UNL1       -0.2670
     11 H          60.9097   91.3416   11.9392 H       1  UNL1        0.1564
     12 H          62.7555   92.5683   13.2950 H       1  UNL1        0.1565
     13 C          64.8740   92.1131   13.3119 C.ar    1  UNL1        0.0650
     14 C          65.7475   93.0983   12.5934 C.ar    1  UNL1        0.0160
     15 C          67.1874   93.2497   12.9854 C.ar    1  UNL1        0.0014
     16 C          67.7539   92.4157   14.0961 C.ar    1  UNL1        0.0014
     17 C          66.8805   91.4305   14.8147 C.ar    1  UNL1        0.0158
     18 C          65.4405   91.2791   14.4226 C.ar    1  UNL1        0.0615
     19 N          64.5671   90.2939   15.1412 N.pl3   1  UNL1       -0.3065
     20 C          64.4376   88.8339   14.8224 C.3     1  UNL1        0.0909
     21 C          63.4604   88.2333   15.7889 C.3     1  UNL1        0.0232
     22 C          62.9858   89.3221   16.7051 C.3     1  UNL1        0.0232
     23 C          63.6699   90.5956   16.3047 C.3     1  UNL1        0.0909
     24 C          62.2111   85.9493    9.6381 C.3     1  UNL1        0.0693
     25 C          62.9420   85.4926    8.4105 C.3     1  UNL1        0.0128
     26 C          63.6593   84.1752    8.4112 C.3     1  UNL1        0.0513
     27 C          63.6456   83.3145    9.6396 C.3     1  UNL1        0.2020
     28 N          62.9147   83.7712   10.8673 N.pl3   1  UNL1       -0.1929
     29 C          62.1974   85.0886   10.8666 C.3     1  UNL1        0.2062
     30 C          62.9010   82.9104   12.0957 C.2     1  UNL1        0.3205
     31 N          62.3993   81.4990   12.0170 N.2     1  UNL1        0.0097
     32 C          62.3856   80.6383   13.2453 C.2     1  UNL1        0.4717
     33 N          62.8737   81.1890   14.5525 N.2     1  UNL1        0.0158
     34 C          63.3753   82.6004   14.6312 C.2     1  UNL1        0.3714
     35 N          63.9146   83.4117   15.7718 N.2     1  UNL1       -0.0339
     36 C          64.2615   84.7739   15.2484 C.2     1  UNL1        0.2323
     37 C          63.9367   84.8045   13.7842 C.2     1  UNL1        0.0486
     38 C          63.3890   83.4611   13.4028 C.3     1  UNL1        0.2428
@<TRIPOS>BOND
     1     7     8    2
     2     8     9   am
     3     9     1    1
     4     1     2   ar
     5     2     3   ar
     6     3     4   ar
     7     4     5   ar
     8    24     5    1
     9    24    25    1
    10    25    26    1
    11    26    27    1
    12    27    28    1
    13    28    30    1
    14    30    31    2
    15    31    32    1
    16    32    33    2
    17    33    34    1
    18    34    35    2
    19    35    36    1
    20    36    37    2
    21    37    38    1
    22    28    29    1
    23     5     6   ar
    24     8    10   am
    25    10    13    1
    26    13    14   ar
    27    14    15   ar
    28    15    16   ar
    29    16    17   ar
    30    17    18   ar
    31    18    19    1
    32    19    20    1
    33    20    21    1
    34    21    22    1
    35    22    23    1
    36     6     1   ar
    37    18    13   ar
    38    23    19    1
    39    29    24    1
    40    38    30    1
    41    38    34    1
    42     9    11    1
    43    10    12    1
@<TRIPOS>MOLECULE
*****
 38 43 0 0 0
SMALL
GASTEIGER

@<TRIPOS>ATOM
      1 C          63.3796   88.2402   16.3608 C.ar    1  UNL1        0.0513
      2 C          62.9678   87.7969   17.7333 C.ar    1  UNL1        0.0147
      3 C          62.6696   86.3506   17.9964 C.ar    1  UNL1        0.0010
      4 C          62.7833   85.3475   16.8869 C.ar    1  UNL1       -0.0041
      5 C          63.1951   85.7907   15.5143 C.ar    1  UNL1       -0.0172
      6 C          63.4933   87.2372   15.2513 C.ar    1  UNL1        0.0106
      7 O          64.3724   89.1006   13.6637 O.2     1  UNL1       -0.2521
      8 C          64.1742   90.1167   14.7492 C.2     1  UNL1        0.3082
      9 N          63.6778   89.6865   16.0977 N.am    1  UNL1       -0.2681
     10 N          64.4724   91.5630   14.4861 N.am    1  UNL1       -0.2670
     11 H          63.5477   90.3535   16.8101 H       1  UNL1        0.1564
     12 H          64.3423   92.2300   15.1985 H       1  UNL1        0.1565
     13 C          64.9687   91.9932   13.1376 C.ar    1  UNL1        0.0650
     14 C          64.0911   91.8390   11.9310 C.ar    1  UNL1        0.0160
     15 C          64.5874   92.2692   10.5826 C.ar    1  UNL1        0.0014
     16 C          65.9615   92.8537   10.4406 C.ar    1  UNL1        0.0014
     17 C          66.8393   93.0079   11.6471 C.ar    1  UNL1        0.0158
     18 C          66.3429   92.5777   12.9956 C.ar    1  UNL1        0.0615
     19 N          67.2207   92.7320   14.2021 N.pl3   1  UNL1       -0.3065
     20 C          67.9518   91.6283   14.9074 C.3     1  UNL1        0.0909
     21 C          68.7044   92.2312   16.0564 C.3     1  UNL1        0.0232
     22 C          68.4385   93.7075   16.0612 C.3     1  UNL1        0.0232
     23 C          67.5215   94.0169   14.9151 C.3     1  UNL1        0.0909
     24 C          63.3087   84.7877   14.4049 C.3     1  UNL1        0.0693
     25 C          63.7121   83.3753   14.7091 C.3     1  UNL1        0.0128
     26 C          63.8257   82.3723   13.5995 C.3     1  UNL1        0.0513
     27 C          63.5360   82.7816   12.1859 C.3     1  UNL1        0.2020
     28 N          63.1326   84.1940   11.8817 N.pl3   1  UNL1       -0.1929
     29 C          63.0190   85.1971   12.9912 C.3     1  UNL1        0.2062
     30 C          62.8429   84.6033   10.4680 C.2     1  UNL1        0.3205
     31 N          63.5072   83.8882    9.3290 N.2     1  UNL1        0.0097
     32 C          63.2175   84.2974    7.9154 C.2     1  UNL1        0.4717
     33 N          62.2634   85.4218    7.6406 N.2     1  UNL1        0.0158
     34 C          61.5990   86.1369    8.7795 C.2     1  UNL1        0.3714
     35 N          60.6208   87.2734    8.8172 N.2     1  UNL1       -0.0339
     36 C          60.3060   87.5666   10.2541 C.2     1  UNL1        0.2323
     37 C          61.0896   86.6112   11.1046 C.2     1  UNL1        0.0486
     38 C          61.8888   85.7276   10.1932 C.3     1  UNL1        0.2428
@<TRIPOS>BOND
     1     7     8    2
     2     8     9   am
     3     9     1    1
     4     1     2   ar
     5     2     3   ar
     6     3     4   ar
     7     4     5   ar
     8    24     5    1
     9    24    25    1
    10    25    26    1
    11    26    27    1
    12    27    28    1
    13    28    30    1
    14    30    31    2
    15    31    32    1
    16    32    33    2
    17    33    34    1
    18    34    35    2
    19    35    36    1
    20    36    37    2
    21    37    38    1
    22    28    29    1
    23     5     6   ar
    24     8    10   am
    25    10    13    1
    26    13    14   ar
    27    14    15   ar
    28    15    16   ar
    29    16    17   ar
    30    17    18   ar
    31    18    19    1
    32    19    20    1
    33    20    21    1
    34    21    22    1
    35    22    23    1
    36     6     1   ar
    37    18    13   ar
    38    23    19    1
    39    29    24    1
    40    38    30    1
    41    38    34    1
    42     9    11    1
    43    10    12    1
@<TRIPOS>MOLECULE
*****
 38 43 0 0 0
SMALL
GASTEIGER

@<TRIPOS>ATOM
      1 C          64.5961   87.4351   14.9174 C.ar    1  UNL1        0.0513
      2 C          63.4186   87.4366   15.8466 C.ar    1  UNL1        0.0147
      3 C          62.9085   88.7303   16.4089 C.ar    1  UNL1        0.0010
      4 C          63.5758   90.0225   16.0419 C.ar    1  UNL1       -0.0041
      5 C          64.7534   90.0211   15.1127 C.ar    1  UNL1       -0.0172
      6 C          65.2636   88.7274   14.5504 C.ar    1  UNL1        0.0106
      7 O          62.7336   85.1073   14.5815 O.2     1  UNL1       -0.2521
      8 C          64.1751   84.9775   14.1872 C.2     1  UNL1        0.3082
      9 N          65.1063   86.1414   14.3552 N.am    1  UNL1       -0.2681
     10 N          64.6852   83.6839   13.6250 N.am    1  UNL1       -0.2670
     11 H          66.0523   86.0562   14.0964 H       1  UNL1        0.1564
     12 H          65.6313   83.5987   13.3662 H       1  UNL1        0.1565
     13 C          63.7541   82.5201   13.4570 C.ar    1  UNL1        0.0650
     14 C          63.6995   81.4461   14.5027 C.ar    1  UNL1        0.0160
     15 C          62.7683   80.2822   14.3348 C.ar    1  UNL1        0.0014
     16 C          61.8916   80.1923   13.1210 C.ar    1  UNL1        0.0014
     17 C          61.9461   81.2662   12.0752 C.ar    1  UNL1        0.0158
     18 C          62.8773   82.4301   12.2432 C.ar    1  UNL1        0.0615
     19 N          62.9317   83.5040   11.1974 N.pl3   1  UNL1       -0.3065
     20 C          63.7416   83.4654    9.9354 C.3     1  UNL1        0.0909
     21 C          63.4963   84.7426    9.1880 C.3     1  UNL1        0.0232
     22 C          62.5348   85.5706    9.9881 C.3     1  UNL1        0.0232
     23 C          62.1859   84.8050   11.2299 C.3     1  UNL1        0.0909
     24 C          65.4207   91.3134   14.7457 C.3     1  UNL1        0.0693
     25 C          65.6321   92.3708   15.7884 C.3     1  UNL1        0.0128
     26 C          66.2995   93.6631   15.4213 C.3     1  UNL1        0.0513
     27 C          66.7555   93.8979   14.0118 C.3     1  UNL1        0.2020
     28 N          66.5441   92.8404   12.9691 N.pl3   1  UNL1       -0.1929
     29 C          65.8767   91.5481   13.3361 C.3     1  UNL1        0.2062
     30 C          67.0001   93.0752   11.5595 C.2     1  UNL1        0.3205
     31 N          67.8976   92.0798   10.8860 N.2     1  UNL1        0.0097
     32 C          68.3536   92.3145    9.4765 C.2     1  UNL1        0.4717
     33 N          67.9121   93.5448    8.7404 N.2     1  UNL1        0.0158
     34 C          67.0146   94.5402    9.4139 C.2     1  UNL1        0.3714
     35 N          66.4204   95.8348    8.9440 N.2     1  UNL1       -0.0339
     36 C          65.5971   96.4001   10.0632 C.2     1  UNL1        0.2323
     37 C          65.6825   95.4549   11.2248 C.2     1  UNL1        0.0486
     38 C          66.5586   94.3054   10.8235 C.3     1  UNL1        0.2428
@<TRIPOS>BOND
     1     7     8    2
     2     8     9   am
     3     9     1    1
     4     1     2   ar
     5     2     3   ar
     6     3     4   ar
     7     4     5   ar
     8    24     5    1
     9    24    25    1
    10    25    26    1
    11    26    27    1
    12    27    28    1
    13    28    30    1
    14    30    31    2
    15    31    32    1
    16    32    33    2
    17    33    34    1
    18    34    35    2
    19    35    36    1
    20    36    37    2
    21    37    38    1
    22    28    29    1
    23     5     6   ar
    24     8    10   am
    25    10    13    1
    26    13    14   ar
    27    14    15   ar
    28    15    16   ar
    29    16    17   ar
    30    17    18   ar
    31    18    19    1
    32    19    20    1
    33    20    21    1
    34    21    22    1
    35    22    23    1
    36     6     1   ar
    37    18    13   ar
    38    23    19    1
    39    29    24    1
    40    38    30    1
    41    38    34    1
    42     9    11    1
    43    10    12    1
@<TRIPOS>MOLECULE
*****
 38 43 0 0 0
SMALL
GASTEIGER

@<TRIPOS>ATOM
      1 C          62.3778   87.4440   11.2713 C.ar    1  UNL1        0.0513
      2 C          60.9355   87.8187   11.1007 C.ar    1  UNL1        0.0147
      3 C          60.4619   89.1831   11.5059 C.ar    1  UNL1        0.0010
      4 C          61.4308   90.1728   12.0819 C.ar    1  UNL1       -0.0041
      5 C          62.8732   89.7982   12.2525 C.ar    1  UNL1       -0.0172
      6 C          63.3468   88.4338   11.8472 C.ar    1  UNL1        0.0106
      7 O          61.9593   85.1054   13.1032 O.2     1  UNL1       -0.2521
      8 C          62.6421   84.9104   11.7820 C.2     1  UNL1        0.3082
      9 N          62.8514   86.0797   10.8660 N.am    1  UNL1       -0.2681
     10 N          63.1156   83.5460   11.3767 N.am    1  UNL1       -0.2670
     11 H          63.2995   85.9516    9.9988 H       1  UNL1        0.1564
     12 H          63.5638   83.4180   10.5095 H       1  UNL1        0.1565
     13 C          62.9064   82.3768   12.2926 C.ar    1  UNL1        0.0650
     14 C          62.2845   81.1160   11.7694 C.ar    1  UNL1        0.0160
     15 C          62.0752   79.9468   12.6853 C.ar    1  UNL1        0.0014
     16 C          62.4879   80.0382   14.1245 C.ar    1  UNL1        0.0014
     17 C          63.1099   81.2989   14.6478 C.ar    1  UNL1        0.0158
     18 C          63.3191   82.4682   13.7319 C.ar    1  UNL1        0.0615
     19 N          63.9411   83.7289   14.2551 N.pl3   1  UNL1       -0.3065
     20 C          63.3724   84.6150   15.3235 C.3     1  UNL1        0.0909
     21 C          64.3207   85.7585   15.5306 C.3     1  UNL1        0.0232
     22 C          65.4756   85.5792   14.5902 C.3     1  UNL1        0.0232
     23 C          65.2408   84.3247   13.8019 C.3     1  UNL1        0.0909
     24 C          63.8420   90.7879   12.8284 C.3     1  UNL1        0.0693
     25 C          64.1982   90.7287   14.2843 C.3     1  UNL1        0.0128
     26 C          65.1671   91.7186   14.8602 C.3     1  UNL1        0.0513
     27 C          65.7798   92.7674   13.9803 C.3     1  UNL1        0.2020
     28 N          65.4236   92.8266   12.5243 N.pl3   1  UNL1       -0.1929
     29 C          64.4547   91.8369   11.9484 C.3     1  UNL1        0.2062
     30 C          66.0363   93.8756   11.6444 C.2     1  UNL1        0.3205
     31 N          65.6933   95.3212   11.8504 N.2     1  UNL1        0.0097
     32 C          66.3060   96.3701   10.9705 C.2     1  UNL1        0.4717
     33 N          67.2617   95.9735    9.8845 N.2     1  UNL1        0.0158
     34 C          67.6046   94.5278    9.6784 C.2     1  UNL1        0.3714
     35 N          68.5070   93.8404    8.6970 N.2     1  UNL1       -0.0339
     36 C          68.4520   92.3666    8.9705 C.2     1  UNL1        0.2323
     37 C          67.5156   92.1431   10.1208 C.2     1  UNL1        0.0486
     38 C          66.9919   93.4789   10.5584 C.3     1  UNL1        0.2428
@<TRIPOS>BOND
     1     7     8    2
     2     8     9   am
     3     9     1    1
     4     1     2   ar
     5     2     3   ar
     6     3     4   ar
     7     4     5   ar
     8    24     5    1
     9    24    25    1
    10    25    26    1
    11    26    27    1
    12    27    28    1
    13    28    30    1
    14    30    31    2
    15    31    32    1
    16    32    33    2
    17    33    34    1
    18    34    35    2
    19    35    36    1
    20    36    37    2
    21    37    38    1
    22    28    29    1
    23     5     6   ar
    24     8    10   am
    25    10    13    1
    26    13    14   ar
    27    14    15   ar
    28    15    16   ar
    29    16    17   ar
    30    17    18   ar
    31    18    19    1
    32    19    20    1
    33    20    21    1
    34    21    22    1
    35    22    23    1
    36     6     1   ar
    37    18    13   ar
    38    23    19    1
    39    29    24    1
    40    38    30    1
    41    38    34    1
    42     9    11    1
    43    10    12    1
@<TRIPOS>MOLECULE
*****
 38 43 0 0 0
SMALL
GASTEIGER

@<TRIPOS>ATOM
      1 C          64.5994   87.7970   14.8054 C.ar    1  UNL1        0.0513
      2 C          63.3645   87.8147   15.6566 C.ar    1  UNL1        0.0147
      3 C          62.8713   89.1074   16.2359 C.ar    1  UNL1        0.0010
      4 C          63.6130   90.3825   15.9640 C.ar    1  UNL1       -0.0041
      5 C          64.8480   90.3649   15.1127 C.ar    1  UNL1       -0.0172
      6 C          65.3412   89.0721   14.5334 C.ar    1  UNL1        0.0106
      7 O          62.7539   85.4398   14.6102 O.2     1  UNL1       -0.2521
      8 C          64.1699   85.3257   14.1285 C.2     1  UNL1        0.3082
      9 N          65.0926   86.5042   14.2262 N.am    1  UNL1       -0.2681
     10 N          64.6631   84.0329   13.5493 N.am    1  UNL1       -0.2670
     11 H          66.0220   86.4293   13.9100 H       1  UNL1        0.1564
     12 H          65.5925   83.9580   13.2331 H       1  UNL1        0.1565
     13 C          63.7405   82.8544   13.4516 C.ar    1  UNL1        0.0650
     14 C          63.7241   81.8224   14.5401 C.ar    1  UNL1        0.0160
     15 C          62.8014   80.6439   14.4425 C.ar    1  UNL1        0.0014
     16 C          61.8950   80.4972   13.2563 C.ar    1  UNL1        0.0014
     17 C          61.9113   81.5291   12.1678 C.ar    1  UNL1        0.0158
     18 C          62.8340   82.7077   12.2654 C.ar    1  UNL1        0.0615
     19 N          62.8503   83.7397   11.1769 N.pl3   1  UNL1       -0.3065
     20 C          62.0969   85.0367   11.1804 C.3     1  UNL1        0.0909
     21 C          62.4038   85.7544    9.8995 C.3     1  UNL1        0.0232
     22 C          63.3469   84.9008    9.1043 C.3     1  UNL1        0.0232
     23 C          63.6228   83.6557    9.8940 C.3     1  UNL1        0.0909
     24 C          65.5897   91.6400   14.8408 C.3     1  UNL1        0.0693
     25 C          66.3100   92.3407   15.9544 C.3     1  UNL1        0.0128
     26 C          67.0518   93.6159   15.6824 C.3     1  UNL1        0.0513
     27 C          67.0732   94.1901   14.2969 C.3     1  UNL1        0.2020
     28 N          66.3529   93.4893   13.1833 N.pl3   1  UNL1       -0.1929
     29 C          65.6111   92.2142   13.4552 C.3     1  UNL1        0.2062
     30 C          66.3743   94.0637   11.7977 C.2     1  UNL1        0.3205
     31 N          65.6038   95.3138   11.4921 N.2     1  UNL1        0.0097
     32 C          65.6252   95.8881   10.1066 C.2     1  UNL1        0.4717
     33 N          66.4172   95.2123    9.0267 N.2     1  UNL1        0.0158
     34 C          67.1877   93.9622    9.3324 C.2     1  UNL1        0.3714
     35 N          68.0523   93.0822    8.4791 N.2     1  UNL1       -0.0339
     36 C          68.5652   91.9640    9.3373 C.2     1  UNL1        0.2323
     37 C          68.0176   92.1529   10.7209 C.2     1  UNL1        0.0486
     38 C          67.1663   93.3879   10.7179 C.3     1  UNL1        0.2428
@<TRIPOS>BOND
     1     7     8    2
     2     8     9   am
     3     9     1    1
     4     1     2   ar
     5     2     3   ar
     6     3     4   ar
     7     4     5   ar
     8    24     5    1
     9    24    25    1
    10    25    26    1
    11    26    27    1
    12    27    28    1
    13    28    30    1
    14    30    31    2
    15    31    32    1
    16    32    33    2
    17    33    34    1
    18    34    35    2
    19    35    36    1
    20    36    37    2
    21    37    38    1
    22    28    29    1
    23     5     6   ar
    24     8    10   am
    25    10    13    1
    26    13    14   ar
    27    14    15   ar
    28    15    16   ar
    29    16    17   ar
    30    17    18   ar
    31    18    19    1
    32    19    20    1
    33    20    21    1
    34    21    22    1
    35    22    23    1
    36     6     1   ar
    37    18    13   ar
    38    23    19    1
    39    29    24    1
    40    38    30    1
    41    38    34    1
    42     9    11    1
    43    10    12    1
