@<TRIPOS>MOLECULE
*****
 38 39 0 0 0
SMALL
GASTEIGER

@<TRIPOS>ATOM
      1 C          64.4766   90.5085   13.7912 C.3     1  UNL1        0.1621
      2 C          63.8786   89.8593   15.0040 C.ar    1  UNL1        0.1812
      3 N          63.2290   90.5697   16.1544 N.ar    1  UNL1       -0.1109
      4 N          62.7741   89.5352   17.1408 N.ar    1  UNL1       -0.0229
      5 N          63.1426   88.1854   16.5999 N.ar    1  UNL1       -0.0430
      6 N          63.8251   88.3858   15.2793 N.ar    1  UNL1       -0.2115
      7 C          64.3603   87.3027   14.3902 C.3     1  UNL1        0.1779
      8 C          64.9625   86.0676   14.9918 C.3     1  UNL1        0.2364
      9 O          64.0825   85.0524   15.6588 O.3     1  UNL1       -0.4325
     10 C          63.1480   84.2146   14.8374 C.2     1  UNL1        0.4017
     11 O          62.4352   84.8179   13.6635 O.2     1  UNL1       -0.2264
     12 N          62.9262   82.7736   15.1899 N.am    1  UNL1       -0.2707
     13 H          63.3941   82.3777   15.9603 H       1  UNL1        0.1527
     14 C          61.9917   81.9359   14.3685 C.3     1  UNL1        0.0928
     15 C          62.5280   80.8041   13.5428 C.3     1  UNL1        0.0239
     16 C          62.8163   81.0100   12.0852 C.3     1  UNL1        0.0335
     17 C          63.5718   82.2249   11.6345 C.3     1  UNL1        0.1372
     18 O          65.0033   82.4117   12.0418 O.3     1  UNL1       -0.3820
     19 H          65.0525   82.5370   13.0024 H       1  UNL1        0.2104
     20 C          66.4614   91.9968   14.5626 C.2     1  UNL1        0.2351
     21 O          65.5212   92.8209   15.3916 O.2     1  UNL1       -0.2737
     22 N          65.9390   90.8406   13.7625 N.am    1  UNL1       -0.2965
     23 H          66.5561   90.2998   13.2184 H       1  UNL1        0.1499
     24 C          67.8532   92.7643   15.9676 C.3     1  UNL1        0.0249
     25 C          67.9239   92.3290   14.5339 C.3     1  UNL1        0.1086
     26 C          67.9946   91.8937   13.1002 C.3     1  UNL1        0.0249
     27 N          69.3863   92.6612   14.5052 N.3     1  UNL1       -0.3164
     28 H          69.7967   92.3148   13.6380 H       1  UNL1        0.1192
     29 H          69.8504   92.2219   15.3002 H       1  UNL1        0.1192
     30 C          63.6121   90.8255   12.6071 C.3     1  UNL1        0.1699
     31 O          62.8109   89.7400   11.9513 O.3     1  UNL1       -0.3468
     32 C          62.4793   89.8304   10.4912 C.3     1  UNL1        0.1687
     33 C          61.6989   88.7332    9.8300 C.ar    1  UNL1        0.0073
     34 C          62.0863   87.3006   10.0484 C.ar    1  UNL1       -0.0019
     35 C          61.3059   86.2035    9.3872 C.ar    1  UNL1       -0.0002
     36 C          60.1380   86.5389    8.5076 C.ar    1  UNL1       -0.0000
     37 C          59.7507   87.9715    8.2892 C.ar    1  UNL1       -0.0002
     38 C          60.5311   89.0686    8.9504 C.ar    1  UNL1       -0.0019
@<TRIPOS>BOND
     1    24    25    1
     2    25    26    1
     3    25    27    1
     4    25    20    1
     5    20    21    2
     6    20    22   am
     7    22     1    1
     8     1    30    1
     9    30    31    1
    10    31    32    1
    11    32    33    1
    12    33    34   ar
    13    34    35   ar
    14    35    36   ar
    15    36    37   ar
    16    37    38   ar
    17     1     2    1
    18     2     3   ar
    19     3     4   ar
    20     4     5   ar
    21     5     6   ar
    22     6     7    1
    23     7     8    1
    24     8     9    1
    25     9    10    1
    26    10    11    2
    27    10    12   am
    28    12    14    1
    29    14    15    1
    30    15    16    1
    31    16    17    1
    32    17    18    1
    33    38    33   ar
    34     6     2   ar
    35    27    28    1
    36    27    29    1
    37    22    23    1
    38    12    13    1
    39    18    19    1
@<TRIPOS>MOLECULE
*****
 38 39 0 0 0
SMALL
GASTEIGER

@<TRIPOS>ATOM
      1 C          63.9840   89.2061   14.0046 C.3     1  UNL1        0.1621
      2 C          64.1307   90.3587   14.9533 C.ar    1  UNL1        0.1812
      3 N          63.2179   90.6787   16.0997 N.ar    1  UNL1       -0.1109
      4 N          63.7391   91.9114   16.7771 N.ar    1  UNL1       -0.0229
      5 N          64.9741   92.3532   16.0493 N.ar    1  UNL1       -0.0430
      6 N          65.2161   91.3935   14.9222 N.ar    1  UNL1       -0.2115
      7 C          66.3453   91.4575   13.9369 C.3     1  UNL1        0.1779
      8 C          67.0681   92.7518   13.7074 C.3     1  UNL1        0.2364
      9 O          66.3052   93.9723   13.2850 O.3     1  UNL1       -0.4325
     10 C          66.0018   94.2023   11.8341 C.2     1  UNL1        0.4017
     11 O          65.2271   93.1786   11.0584 O.2     1  UNL1       -0.2264
     12 N          66.4731   95.4561   11.1591 N.am    1  UNL1       -0.2707
     13 H          66.9816   96.1280   11.6682 H       1  UNL1        0.1527
     14 C          66.1697   95.6861    9.7082 C.3     1  UNL1        0.0928
     15 C          67.0731   95.1182    8.6538 C.3     1  UNL1        0.0239
     16 C          68.2689   94.3040    9.0499 C.3     1  UNL1        0.0335
     17 C          68.1712   92.8084    9.1106 C.3     1  UNL1        0.1372
     18 O          68.8550   91.9695    8.0721 O.3     1  UNL1       -0.3820
     19 H          68.4421   92.1243    7.2081 H       1  UNL1        0.2104
     20 C          62.0683   89.7555   12.3378 C.2     1  UNL1        0.2351
     21 O          61.0964   89.8263   13.4782 O.2     1  UNL1       -0.2737
     22 N          63.5121   89.4454   12.6010 N.am    1  UNL1       -0.2965
     23 H          64.1500   89.3989   11.8526 H       1  UNL1        0.1499
     24 C          60.1752   90.0046   11.4137 C.3     1  UNL1        0.0249
     25 C          61.5964   89.9948   10.9342 C.3     1  UNL1        0.1086
     26 C          63.0177   89.9850   10.4547 C.3     1  UNL1        0.0249
     27 N          61.1245   90.2341    9.5306 N.3     1  UNL1       -0.3164
     28 H          61.9255   90.4374    8.9327 H       1  UNL1        0.1192
     29 H          60.4815   91.0258    9.5185 H       1  UNL1        0.1192
     30 C          64.3092   87.8143   14.4595 C.3     1  UNL1        0.1699
     31 O          63.6714   86.6363   13.7844 O.3     1  UNL1       -0.3468
     32 C          63.7230   85.2833   14.4299 C.3     1  UNL1        0.1687
     33 C          63.3264   84.0647   13.6502 C.ar    1  UNL1        0.0073
     34 C          63.7096   83.9413   12.2053 C.ar    1  UNL1       -0.0019
     35 C          63.3131   82.7227   11.4257 C.ar    1  UNL1       -0.0002
     36 C          62.5333   81.6276   12.0911 C.ar    1  UNL1       -0.0000
     37 C          62.1501   81.7511   13.5360 C.ar    1  UNL1       -0.0002
     38 C          62.5466   82.9696   14.3155 C.ar    1  UNL1       -0.0019
@<TRIPOS>BOND
     1    24    25    1
     2    25    26    1
     3    25    27    1
     4    25    20    1
     5    20    21    2
     6    20    22   am
     7    22     1    1
     8     1    30    1
     9    30    31    1
    10    31    32    1
    11    32    33    1
    12    33    34   ar
    13    34    35   ar
    14    35    36   ar
    15    36    37   ar
    16    37    38   ar
    17     1     2    1
    18     2     3   ar
    19     3     4   ar
    20     4     5   ar
    21     5     6   ar
    22     6     7    1
    23     7     8    1
    24     8     9    1
    25     9    10    1
    26    10    11    2
    27    10    12   am
    28    12    14    1
    29    14    15    1
    30    15    16    1
    31    16    17    1
    32    17    18    1
    33    38    33   ar
    34     6     2   ar
    35    27    28    1
    36    27    29    1
    37    22    23    1
    38    12    13    1
    39    18    19    1
@<TRIPOS>MOLECULE
*****
 38 39 0 0 0
SMALL
GASTEIGER

@<TRIPOS>ATOM
      1 C          63.6620   90.3821   12.9145 C.3     1  UNL1        0.1621
      2 C          63.5867   90.1759   14.3983 C.ar    1  UNL1        0.1812
      3 N          63.2600   91.2255   15.4189 N.ar    1  UNL1       -0.1109
      4 N          63.2962   90.5821   16.7734 N.ar    1  UNL1       -0.0229
      5 N          63.6453   89.1348   16.5899 N.ar    1  UNL1       -0.0430
      6 N          63.8248   88.8838   15.1220 N.ar    1  UNL1       -0.2115
      7 C          64.1800   87.5711   14.4890 C.3     1  UNL1        0.1779
      8 C          64.3475   86.3482   15.3414 C.3     1  UNL1        0.2364
      9 O          64.6266   85.0205   14.7018 O.3     1  UNL1       -0.4325
     10 C          63.6213   84.4106   13.7705 C.2     1  UNL1        0.4017
     11 O          62.1545   84.5806   14.0345 O.2     1  UNL1       -0.2264
     12 N          64.0828   83.6306   12.5753 N.am    1  UNL1       -0.2707
     13 H          65.0455   83.5190   12.4020 H       1  UNL1        0.1527
     14 C          63.0774   83.0207   11.6440 C.3     1  UNL1        0.0928
     15 C          63.0272   81.5321   11.4650 C.3     1  UNL1        0.0239
     16 C          62.7657   80.6433   12.6447 C.3     1  UNL1        0.0335
     17 C          61.7194   81.0210   13.6508 C.3     1  UNL1        0.1372
     18 O          62.1208   81.6661   14.9442 O.3     1  UNL1       -0.3820
     19 H          62.6353   81.0368   15.4734 H       1  UNL1        0.2104
     20 C          65.5290   92.1850   12.7955 C.2     1  UNL1        0.2351
     21 O          66.3468   91.4030   13.7804 O.2     1  UNL1       -0.2737
     22 N          64.1867   91.6745   12.3626 N.am    1  UNL1       -0.2965
     23 H          63.6499   92.1877   11.7162 H       1  UNL1        0.1499
     24 C          66.5654   93.8503   13.6034 C.3     1  UNL1        0.0249
     25 C          66.0536   93.4773   12.2436 C.3     1  UNL1        0.1086
     26 C          65.5419   93.1044   10.8838 C.3     1  UNL1        0.0249
     27 N          66.5783   94.7697   11.6917 N.3     1  UNL1       -0.3164
     28 H          66.5107   94.7571   10.6741 H       1  UNL1        0.1192
     29 H          67.5537   94.8856   11.9663 H       1  UNL1        0.1192
     30 C          63.2128   89.2960   11.9826 C.3     1  UNL1        0.1699
     31 O          61.7600   88.9316   11.9004 O.3     1  UNL1       -0.3468
     32 C          61.0147   89.1062   10.6105 C.3     1  UNL1        0.1687
     33 C          60.9432   87.9761    9.6266 C.ar    1  UNL1        0.0073
     34 C          62.1083   87.0448    9.4683 C.ar    1  UNL1       -0.0019
     35 C          62.0368   85.9147    8.4846 C.ar    1  UNL1       -0.0002
     36 C          60.8003   85.7161    7.6591 C.ar    1  UNL1       -0.0000
     37 C          59.6352   86.6474    7.8174 C.ar    1  UNL1       -0.0002
     38 C          59.7067   87.7774    8.8012 C.ar    1  UNL1       -0.0019
@<TRIPOS>BOND
     1    24    25    1
     2    25    26    1
     3    25    27    1
     4    25    20    1
     5    20    21    2
     6    20    22   am
     7    22     1    1
     8     1    30    1
     9    30    31    1
    10    31    32    1
    11    32    33    1
    12    33    34   ar
    13    34    35   ar
    14    35    36   ar
    15    36    37   ar
    16    37    38   ar
    17     1     2    1
    18     2     3   ar
    19     3     4   ar
    20     4     5   ar
    21     5     6   ar
    22     6     7    1
    23     7     8    1
    24     8     9    1
    25     9    10    1
    26    10    11    2
    27    10    12   am
    28    12    14    1
    29    14    15    1
    30    15    16    1
    31    16    17    1
    32    17    18    1
    33    38    33   ar
    34     6     2   ar
    35    27    28    1
    36    27    29    1
    37    22    23    1
    38    12    13    1
    39    18    19    1
@<TRIPOS>MOLECULE
*****
 38 39 0 0 0
SMALL
GASTEIGER

@<TRIPOS>ATOM
      1 C          63.6708   90.1627   12.6856 C.3     1  UNL1        0.1621
      2 C          63.5568   89.8782   14.1539 C.ar    1  UNL1        0.1812
      3 N          63.1866   90.8688   15.2178 N.ar    1  UNL1       -0.1109
      4 N          63.1940   90.1560   16.5376 N.ar    1  UNL1       -0.0229
      5 N          63.5688   88.7249   16.2893 N.ar    1  UNL1       -0.0430
      6 N          63.7930   88.5533   14.8161 N.ar    1  UNL1       -0.2115
      7 C          64.1846   87.2801   14.1264 C.3     1  UNL1        0.1779
      8 C          64.6184   86.0925   14.9335 C.3     1  UNL1        0.2364
      9 O          63.5922   85.2057   15.5741 O.3     1  UNL1       -0.4325
     10 C          62.8473   84.2009   14.7461 C.2     1  UNL1        0.4017
     11 O          62.1506   84.6330   13.4899 O.2     1  UNL1       -0.2264
     12 N          62.7991   82.7642   15.1742 N.am    1  UNL1       -0.2707
     13 H          63.2564   82.4806   15.9987 H       1  UNL1        0.1527
     14 C          62.0542   81.7595   14.3462 C.3     1  UNL1        0.0928
     15 C          62.7708   80.9905   13.2759 C.3     1  UNL1        0.0239
     16 C          62.8739   81.5534   11.8894 C.3     1  UNL1        0.0335
     17 C          64.0473   82.4082   11.5124 C.3     1  UNL1        0.1372
     18 O          64.8489   83.0940   12.5788 O.3     1  UNL1       -0.3820
     19 H          64.2980   83.7596   13.0197 H       1  UNL1        0.2104
     20 C          61.6732   88.9565   11.5434 C.2     1  UNL1        0.2351
     21 O          60.7157   89.7325   12.3985 O.2     1  UNL1       -0.2737
     22 N          63.1507   89.1716   11.6870 N.am    1  UNL1       -0.2965
     23 H          63.7791   88.6623   11.1258 H       1  UNL1        0.1499
     24 C          62.1267   86.9433   11.0522 C.3     1  UNL1        0.0249
     25 C          61.1531   87.9654   10.5448 C.3     1  UNL1        0.1086
     26 C          60.1795   88.9874   10.0374 C.3     1  UNL1        0.0249
     27 N          60.6330   86.9742    9.5462 N.3     1  UNL1       -0.3164
     28 H          59.7929   87.3465    9.1035 H       1  UNL1        0.1192
     29 H          60.4083   86.0997   10.0206 H       1  UNL1        0.1192
     30 C          64.3048   91.4384   12.2158 C.3     1  UNL1        0.1699
     31 O          65.0041   92.3335   13.1956 O.3     1  UNL1       -0.3468
     32 C          66.4194   92.7612   12.9429 C.3     1  UNL1        0.1687
     33 C          66.8286   93.2314   11.5785 C.ar    1  UNL1        0.0073
     34 C          67.6474   92.3402   10.6923 C.ar    1  UNL1       -0.0019
     35 C          68.0566   92.8104    9.3280 C.ar    1  UNL1       -0.0002
     36 C          67.6469   94.1719    8.8498 C.ar    1  UNL1       -0.0000
     37 C          66.8281   95.0631    9.7359 C.ar    1  UNL1       -0.0002
     38 C          66.4190   94.5929   11.1003 C.ar    1  UNL1       -0.0019
@<TRIPOS>BOND
     1    24    25    1
     2    25    26    1
     3    25    27    1
     4    25    20    1
     5    20    21    2
     6    20    22   am
     7    22     1    1
     8     1    30    1
     9    30    31    1
    10    31    32    1
    11    32    33    1
    12    33    34   ar
    13    34    35   ar
    14    35    36   ar
    15    36    37   ar
    16    37    38   ar
    17     1     2    1
    18     2     3   ar
    19     3     4   ar
    20     4     5   ar
    21     5     6   ar
    22     6     7    1
    23     7     8    1
    24     8     9    1
    25     9    10    1
    26    10    11    2
    27    10    12   am
    28    12    14    1
    29    14    15    1
    30    15    16    1
    31    16    17    1
    32    17    18    1
    33    38    33   ar
    34     6     2   ar
    35    27    28    1
    36    27    29    1
    37    22    23    1
    38    12    13    1
    39    18    19    1
@<TRIPOS>MOLECULE
*****
 38 39 0 0 0
SMALL
GASTEIGER

@<TRIPOS>ATOM
      1 C          63.8680   88.3466   13.8341 C.3     1  UNL1        0.1621
      2 C          63.7857   89.4731   14.8211 C.ar    1  UNL1        0.1812
      3 N          62.9744   89.4825   16.0828 N.ar    1  UNL1       -0.1109
      4 N          63.1876   90.8032   16.7612 N.ar    1  UNL1       -0.0229
      5 N          64.1307   91.6101   15.9188 N.ar    1  UNL1       -0.0430
      6 N          64.5003   90.7880   14.7198 N.ar    1  UNL1       -0.2115
      7 C          65.4227   91.2073   13.6137 C.3     1  UNL1        0.1779
      8 C          65.8992   92.6273   13.5321 C.3     1  UNL1        0.2364
      9 O          66.9991   92.9960   12.5812 O.3     1  UNL1       -0.4325
     10 C          66.6698   93.4072   11.1767 C.2     1  UNL1        0.4017
     11 O          65.2640   93.2824   10.6687 O.2     1  UNL1       -0.2264
     12 N          67.7464   93.9433   10.2804 N.am    1  UNL1       -0.2707
     13 H          68.6691   94.0252   10.6138 H       1  UNL1        0.1527
     14 C          67.4171   94.3545    8.8759 C.3     1  UNL1        0.0928
     15 C          67.2770   95.8082    8.5334 C.3     1  UNL1        0.0239
     16 C          67.1388   96.8263    9.6262 C.3     1  UNL1        0.0335
     17 C          65.9017   96.8532   10.4740 C.3     1  UNL1        0.1372
     18 O          64.6552   96.1640   10.0037 O.3     1  UNL1       -0.3820
     19 H          64.3185   96.6103    9.2110 H       1  UNL1        0.2104
     20 C          62.1376   89.2901   12.1413 C.2     1  UNL1        0.2351
     21 O          61.3133   89.8179   13.2780 O.2     1  UNL1       -0.2737
     22 N          63.4149   88.5544   12.4194 N.am    1  UNL1       -0.2965
     23 H          63.9558   88.2080   11.6733 H       1  UNL1        0.1499
     24 C          62.8464   90.4164   10.4894 C.3     1  UNL1        0.0249
     25 C          61.6845   89.4979   10.7266 C.3     1  UNL1        0.1086
     26 C          60.5226   88.5794   10.9638 C.3     1  UNL1        0.0249
     27 N          61.2313   89.7057    9.3118 N.3     1  UNL1       -0.3164
     28 H          60.4811   89.0495    9.0952 H       1  UNL1        0.1192
     29 H          62.0144   89.5483    8.6774 H       1  UNL1        0.1192
     30 C          64.4033   87.0123   14.2618 C.3     1  UNL1        0.1699
     31 O          63.5046   86.0302   14.9531 O.3     1  UNL1       -0.3468
     32 C          62.5876   85.1575   14.1485 C.3     1  UNL1        0.1687
     33 C          63.0380   84.6163   12.8240 C.ar    1  UNL1        0.0073
     34 C          64.0195   83.4833   12.7712 C.ar    1  UNL1       -0.0019
     35 C          64.4698   82.9422   11.4467 C.ar    1  UNL1       -0.0002
     36 C          63.9386   83.5342   10.1749 C.ar    1  UNL1       -0.0000
     37 C          62.9571   84.6672   10.2277 C.ar    1  UNL1       -0.0002
     38 C          62.5068   85.2083   11.5522 C.ar    1  UNL1       -0.0019
@<TRIPOS>BOND
     1    24    25    1
     2    25    26    1
     3    25    27    1
     4    25    20    1
     5    20    21    2
     6    20    22   am
     7    22     1    1
     8     1    30    1
     9    30    31    1
    10    31    32    1
    11    32    33    1
    12    33    34   ar
    13    34    35   ar
    14    35    36   ar
    15    36    37   ar
    16    37    38   ar
    17     1     2    1
    18     2     3   ar
    19     3     4   ar
    20     4     5   ar
    21     5     6   ar
    22     6     7    1
    23     7     8    1
    24     8     9    1
    25     9    10    1
    26    10    11    2
    27    10    12   am
    28    12    14    1
    29    14    15    1
    30    15    16    1
    31    16    17    1
    32    17    18    1
    33    38    33   ar
    34     6     2   ar
    35    27    28    1
    36    27    29    1
    37    22    23    1
    38    12    13    1
    39    18    19    1
@<TRIPOS>MOLECULE
*****
 38 39 0 0 0
SMALL
GASTEIGER

@<TRIPOS>ATOM
      1 C          64.7356   92.1266   11.3994 C.3     1  UNL1        0.1621
      2 C          64.9194   92.1087   12.8879 C.ar    1  UNL1        0.1812
      3 N          65.7879   93.0404   13.6803 N.ar    1  UNL1       -0.1109
      4 N          65.6722   92.6635   15.1276 N.ar    1  UNL1       -0.0229
      5 N          64.7323   91.4990   15.2296 N.ar    1  UNL1       -0.0430
      6 N          64.2670   91.1561   13.8455 N.ar    1  UNL1       -0.2115
      7 C          63.3163   90.0541   13.4826 C.3     1  UNL1        0.1779
      8 C          63.8309   88.6632   13.2578 C.3     1  UNL1        0.2364
      9 O          64.2971   87.8388   14.4210 O.3     1  UNL1       -0.4325
     10 C          63.9246   86.3885   14.5097 C.2     1  UNL1        0.4017
     11 O          64.3654   85.5716   15.6880 O.2     1  UNL1       -0.2264
     12 N          63.1113   85.7552   13.4200 N.am    1  UNL1       -0.2707
     13 H          62.8220   86.2914   12.6467 H       1  UNL1        0.1527
     14 C          62.7388   84.3049   13.5086 C.3     1  UNL1        0.0928
     15 C          63.4474   83.2950   12.6552 C.3     1  UNL1        0.0239
     16 C          62.7988   81.9750   12.3605 C.3     1  UNL1        0.0335
     17 C          61.8759   81.3519   13.3654 C.3     1  UNL1        0.1372
     18 O          62.3118   81.2035   14.7930 O.3     1  UNL1       -0.3820
     19 H          63.0514   80.5777   14.8418 H       1  UNL1        0.2104
     20 C          66.7583   93.3760   10.3516 C.2     1  UNL1        0.2351
     21 O          67.6893   92.3479   10.9229 O.2     1  UNL1       -0.2737
     22 N          65.2815   93.2653   10.5899 N.am    1  UNL1       -0.2965
     23 H          64.6705   93.9401   10.2149 H       1  UNL1        0.1499
     24 C          68.0824   93.5451    8.7030 C.3     1  UNL1        0.0249
     25 C          67.3042   94.5147    9.5421 C.3     1  UNL1        0.1086
     26 C          66.5259   95.4843   10.3813 C.3     1  UNL1        0.0249
     27 N          67.8501   95.6535    8.7326 N.3     1  UNL1       -0.3164
     28 H          67.3599   96.5128    8.9810 H       1  UNL1        0.1192
     29 H          67.7158   95.4601    7.7401 H       1  UNL1        0.1192
     30 C          64.0060   91.0057   10.7203 C.3     1  UNL1        0.1699
     31 O          62.6677   91.2549   10.0901 O.3     1  UNL1       -0.3468
     32 C          61.4897   90.4085   10.4717 C.3     1  UNL1        0.1687
     33 C          61.2297   89.1175    9.7536 C.ar    1  UNL1        0.0073
     34 C          62.1255   87.9369    9.9851 C.ar    1  UNL1       -0.0019
     35 C          61.8655   86.6459    9.2670 C.ar    1  UNL1       -0.0002
     36 C          60.7096   86.5355    8.3174 C.ar    1  UNL1       -0.0000
     37 C          59.8138   87.7161    8.0858 C.ar    1  UNL1       -0.0002
     38 C          60.0738   89.0071    8.8040 C.ar    1  UNL1       -0.0019
@<TRIPOS>BOND
     1    24    25    1
     2    25    26    1
     3    25    27    1
     4    25    20    1
     5    20    21    2
     6    20    22   am
     7    22     1    1
     8     1    30    1
     9    30    31    1
    10    31    32    1
    11    32    33    1
    12    33    34   ar
    13    34    35   ar
    14    35    36   ar
    15    36    37   ar
    16    37    38   ar
    17     1     2    1
    18     2     3   ar
    19     3     4   ar
    20     4     5   ar
    21     5     6   ar
    22     6     7    1
    23     7     8    1
    24     8     9    1
    25     9    10    1
    26    10    11    2
    27    10    12   am
    28    12    14    1
    29    14    15    1
    30    15    16    1
    31    16    17    1
    32    17    18    1
    33    38    33   ar
    34     6     2   ar
    35    27    28    1
    36    27    29    1
    37    22    23    1
    38    12    13    1
    39    18    19    1
@<TRIPOS>MOLECULE
*****
 38 39 0 0 0
SMALL
GASTEIGER

@<TRIPOS>ATOM
      1 C          63.1373   88.0472   12.2398 C.3     1  UNL1        0.1621
      2 C          63.4423   89.1887   13.1639 C.ar    1  UNL1        0.1812
      3 N          63.7600   89.0790   14.6258 N.ar    1  UNL1       -0.1109
      4 N          63.9971   90.4628   15.1537 N.ar    1  UNL1       -0.0229
      5 N          63.8260   91.4278   14.0181 N.ar    1  UNL1       -0.0430
      6 N          63.4830   90.6403   12.7884 N.ar    1  UNL1       -0.2115
      7 C          63.2260   91.2053   11.4229 C.3     1  UNL1        0.1779
      8 C          64.3575   91.7822   10.6246 C.3     1  UNL1        0.2364
      9 O          65.2258   92.8514   11.2186 O.3     1  UNL1       -0.4325
     10 C          66.5659   92.4969   11.7918 C.2     1  UNL1        0.4017
     11 O          67.7745   92.4574   10.9043 O.2     1  UNL1       -0.2264
     12 N          66.6972   92.1819   13.2524 N.am    1  UNL1       -0.2707
     13 H          65.9039   92.2078   13.8348 H       1  UNL1        0.1527
     14 C          68.0373   91.8273   13.8255 C.3     1  UNL1        0.0928
     15 C          68.6820   92.7273   14.8378 C.3     1  UNL1        0.0239
     16 C          67.8597   93.3272   15.9396 C.3     1  UNL1        0.0335
     17 C          66.6243   92.6255   16.4206 C.3     1  UNL1        0.1372
     18 O          65.2819   93.0101   15.8728 O.3     1  UNL1       -0.3820
     19 H          65.0697   93.9168   16.1441 H       1  UNL1        0.2104
     20 C          61.0221   88.2677   10.7475 C.2     1  UNL1        0.2351
     21 O          60.1544   87.9594   11.9317 O.2     1  UNL1       -0.2737
     22 N          62.5135   88.3116   10.9016 N.am    1  UNL1       -0.2965
     23 H          63.0829   88.5140   10.1244 H       1  UNL1        0.1499
     24 C          60.1159   89.9468    9.8204 C.3     1  UNL1        0.0249
     25 C          60.3982   88.5322    9.4093 C.3     1  UNL1        0.1086
     26 C          60.6806   87.1175    8.9981 C.3     1  UNL1        0.0249
     27 N          59.7744   88.7966    8.0710 N.3     1  UNL1       -0.3164
     28 H          59.9515   88.0062    7.4512 H       1  UNL1        0.1192
     29 H          60.1791   89.6419    7.6683 H       1  UNL1        0.1192
     30 C          63.4562   86.6412   12.6540 C.3     1  UNL1        0.1699
     31 O          62.3548   85.6325   12.7940 O.3     1  UNL1       -0.3468
     32 C          62.4751   84.5253   13.7987 C.3     1  UNL1        0.1687
     33 C          62.5539   83.0998   13.3382 C.ar    1  UNL1        0.0073
     34 C          62.2775   81.9840   14.3018 C.ar    1  UNL1       -0.0019
     35 C          62.3562   80.5587   13.8413 C.ar    1  UNL1       -0.0002
     36 C          62.7114   80.2491   12.4172 C.ar    1  UNL1       -0.0000
     37 C          62.9878   81.3650   11.4536 C.ar    1  UNL1       -0.0002
     38 C          62.9091   82.7903   11.9142 C.ar    1  UNL1       -0.0019
@<TRIPOS>BOND
     1    24    25    1
     2    25    26    1
     3    25    27    1
     4    25    20    1
     5    20    21    2
     6    20    22   am
     7    22     1    1
     8     1    30    1
     9    30    31    1
    10    31    32    1
    11    32    33    1
    12    33    34   ar
    13    34    35   ar
    14    35    36   ar
    15    36    37   ar
    16    37    38   ar
    17     1     2    1
    18     2     3   ar
    19     3     4   ar
    20     4     5   ar
    21     5     6   ar
    22     6     7    1
    23     7     8    1
    24     8     9    1
    25     9    10    1
    26    10    11    2
    27    10    12   am
    28    12    14    1
    29    14    15    1
    30    15    16    1
    31    16    17    1
    32    17    18    1
    33    38    33   ar
    34     6     2   ar
    35    27    28    1
    36    27    29    1
    37    22    23    1
    38    12    13    1
    39    18    19    1
@<TRIPOS>MOLECULE
*****
 38 39 0 0 0
SMALL
GASTEIGER

@<TRIPOS>ATOM
      1 C          63.0332   89.3276   12.7146 C.3     1  UNL1        0.1621
      2 C          61.7259   89.6971   12.0787 C.ar    1  UNL1        0.1812
      3 N          60.3651   89.4851   12.6733 N.ar    1  UNL1       -0.1109
      4 N          59.3480   90.0005   11.6987 N.ar    1  UNL1       -0.0229
      5 N          60.0802   90.5310   10.5017 N.ar    1  UNL1       -0.0430
      6 N          61.5497   90.3435   10.7366 N.ar    1  UNL1       -0.2115
      7 C          62.6500   90.7339    9.7948 C.3     1  UNL1        0.1779
      8 C          63.4970   91.9366   10.0882 C.3     1  UNL1        0.2364
      9 O          64.7359   91.7962   10.9221 O.3     1  UNL1       -0.4325
     10 C          65.6921   92.9455   11.0441 C.2     1  UNL1        0.4017
     11 O          67.0472   92.7325   11.6510 O.2     1  UNL1       -0.2264
     12 N          65.2931   94.3077   10.5592 N.am    1  UNL1       -0.2707
     13 H          64.4037   94.4474   10.1609 H       1  UNL1        0.1527
     14 C          66.2493   95.4569   10.6812 C.3     1  UNL1        0.0928
     15 C          67.3226   95.6521    9.6516 C.3     1  UNL1        0.0239
     16 C          67.4357   94.7017    8.4966 C.3     1  UNL1        0.0335
     17 C          68.3507   93.5166    8.5875 C.3     1  UNL1        0.1372
     18 O          69.2143   93.3271    9.7992 O.3     1  UNL1       -0.3820
     19 H          69.8689   94.0415    9.8447 H       1  UNL1        0.2104
     20 C          63.9828   90.4370   14.8634 C.2     1  UNL1        0.2351
     21 O          63.2502   89.4343   15.7048 O.2     1  UNL1       -0.2737
     22 N          63.8743   90.3837   13.3683 N.am    1  UNL1       -0.2965
     23 H          64.3551   91.0418   12.8160 H       1  UNL1        0.1499
     24 C          65.8377   91.3653   14.4190 C.3     1  UNL1        0.0249
     25 C          64.8238   91.4931   15.5171 C.3     1  UNL1        0.1086
     26 C          63.8100   91.6208   16.6152 C.3     1  UNL1        0.0249
     27 N          65.6649   92.5491   16.1708 N.3     1  UNL1       -0.3164
     28 H          65.1391   92.9801   16.9312 H       1  UNL1        0.1192
     29 H          65.9129   93.2603   15.4830 H       1  UNL1        0.1192
     30 C          63.4994   87.9021   12.6967 C.3     1  UNL1        0.1699
     31 O          62.5140   86.7934   12.4735 O.3     1  UNL1       -0.3468
     32 C          62.5910   85.9608   11.2282 C.3     1  UNL1        0.1687
     33 C          62.8948   84.4949   11.3235 C.ar    1  UNL1        0.0073
     34 C          62.4761   83.7197   12.5375 C.ar    1  UNL1       -0.0019
     35 C          62.7799   82.2539   12.6328 C.ar    1  UNL1       -0.0002
     36 C          63.5023   81.5634   11.5142 C.ar    1  UNL1       -0.0000
     37 C          63.9209   82.3386   10.3002 C.ar    1  UNL1       -0.0002
     38 C          63.6172   83.8044   10.2049 C.ar    1  UNL1       -0.0019
@<TRIPOS>BOND
     1    24    25    1
     2    25    26    1
     3    25    27    1
     4    25    20    1
     5    20    21    2
     6    20    22   am
     7    22     1    1
     8     1    30    1
     9    30    31    1
    10    31    32    1
    11    32    33    1
    12    33    34   ar
    13    34    35   ar
    14    35    36   ar
    15    36    37   ar
    16    37    38   ar
    17     1     2    1
    18     2     3   ar
    19     3     4   ar
    20     4     5   ar
    21     5     6   ar
    22     6     7    1
    23     7     8    1
    24     8     9    1
    25     9    10    1
    26    10    11    2
    27    10    12   am
    28    12    14    1
    29    14    15    1
    30    15    16    1
    31    16    17    1
    32    17    18    1
    33    38    33   ar
    34     6     2   ar
    35    27    28    1
    36    27    29    1
    37    22    23    1
    38    12    13    1
    39    18    19    1
@<TRIPOS>MOLECULE
*****
 38 39 0 0 0
SMALL
GASTEIGER

@<TRIPOS>ATOM
      1 C          65.6791   92.8027   12.7149 C.3     1  UNL1        0.1621
      2 C          66.6480   92.5369   13.8286 C.ar    1  UNL1        0.1812
      3 N          68.1362   92.4087   13.6908 N.ar    1  UNL1       -0.1109
      4 N          68.7069   92.1451   15.0527 N.ar    1  UNL1       -0.0229
      5 N          67.5713   92.1104   16.0323 N.ar    1  UNL1       -0.0430
      6 N          66.2989   92.3525   15.2757 N.ar    1  UNL1       -0.2115
      7 C          64.9196   92.4017   15.8631 C.3     1  UNL1        0.1779
      8 C          64.0933   91.1523   15.9428 C.3     1  UNL1        0.2364
      9 O          64.3633   90.0134   15.0047 O.3     1  UNL1       -0.4325
     10 C          63.9727   88.6169   15.3885 C.2     1  UNL1        0.4017
     11 O          63.1080   88.3838   16.5918 O.2     1  UNL1       -0.2264
     12 N          64.4467   87.4535   14.5688 N.am    1  UNL1       -0.2707
     13 H          65.0142   87.6065   13.7790 H       1  UNL1        0.1527
     14 C          64.0561   86.0571   14.9526 C.3     1  UNL1        0.0928
     15 C          64.7693   84.8852   14.3458 C.3     1  UNL1        0.0239
     16 C          63.9924   83.8313   13.6138 C.3     1  UNL1        0.0335
     17 C          63.6302   82.5506   14.3054 C.3     1  UNL1        0.1372
     18 O          62.4564   82.5082   15.2385 O.3     1  UNL1       -0.3820
     19 H          62.6380   83.0647   16.0119 H       1  UNL1        0.2104
     20 C          66.7406   94.2459   10.8332 C.2     1  UNL1        0.2351
     21 O          67.6585   93.1126   10.4819 O.2     1  UNL1       -0.2737
     22 N          65.7510   94.0909   11.9497 N.am    1  UNL1       -0.2965
     23 H          65.1486   94.8347   12.1803 H       1  UNL1        0.1499
     24 C          67.6958   94.8788    9.0480 C.3     1  UNL1        0.0249
     25 C          66.8125   95.5340   10.0681 C.3     1  UNL1        0.1086
     26 C          65.9293   96.1892   11.0882 C.3     1  UNL1        0.0249
     27 N          66.8844   96.8222    9.3030 N.3     1  UNL1       -0.3164
     28 H          66.2152   97.4865    9.6919 H       1  UNL1        0.1192
     29 H          66.6607   96.6486    8.3231 H       1  UNL1        0.1192
     30 C          64.6383   91.7804   12.3663 C.3     1  UNL1        0.1699
     31 O          64.2992   91.5152   10.9293 O.3     1  UNL1       -0.3468
     32 C          62.8837   91.2121   10.5365 C.3     1  UNL1        0.1687
     33 C          62.3975   89.7931   10.5194 C.ar    1  UNL1        0.0073
     34 C          62.8898   88.8192   11.5485 C.ar    1  UNL1       -0.0019
     35 C          62.4037   87.4003   11.5314 C.ar    1  UNL1       -0.0002
     36 C          61.4252   86.9553   10.4852 C.ar    1  UNL1       -0.0000
     37 C          60.9329   87.9292    9.4561 C.ar    1  UNL1       -0.0002
     38 C          61.4190   89.3481    9.4732 C.ar    1  UNL1       -0.0019
@<TRIPOS>BOND
     1    24    25    1
     2    25    26    1
     3    25    27    1
     4    25    20    1
     5    20    21    2
     6    20    22   am
     7    22     1    1
     8     1    30    1
     9    30    31    1
    10    31    32    1
    11    32    33    1
    12    33    34   ar
    13    34    35   ar
    14    35    36   ar
    15    36    37   ar
    16    37    38   ar
    17     1     2    1
    18     2     3   ar
    19     3     4   ar
    20     4     5   ar
    21     5     6   ar
    22     6     7    1
    23     7     8    1
    24     8     9    1
    25     9    10    1
    26    10    11    2
    27    10    12   am
    28    12    14    1
    29    14    15    1
    30    15    16    1
    31    16    17    1
    32    17    18    1
    33    38    33   ar
    34     6     2   ar
    35    27    28    1
    36    27    29    1
    37    22    23    1
    38    12    13    1
    39    18    19    1
