@<TRIPOS>MOLECULE
*****
 52 56 0 0 0
SMALL
GASTEIGER

@<TRIPOS>ATOM
      1 C          63.2554   90.5975   12.6306 C.3     1  UNL1        0.2170
      2 C          62.6823   90.7231   11.2501 C.3     1  UNL1        0.0525
      3 C          63.2432   91.7340   10.2942 C.3     1  UNL1        0.0257
      4 C          64.3772   92.6192   10.7189 C.3     1  UNL1        0.0939
      5 N          64.9503   92.4936   12.0995 N.am    1  UNL1       -0.2737
      6 C          66.0843   93.3789   12.5242 C.2     1  UNL1        0.2506
      7 O          66.6573   93.2533   13.9047 O.2     1  UNL1       -0.2699
      8 C          64.3893   91.4828   13.0552 C.3     1  UNL1        0.1230
      9 N          61.6093   86.7286    9.2288 N.pl3   1  UNL1       -0.3017
     10 C          62.6725   87.7849    9.1666 C.3     1  UNL1        0.1124
     11 C          62.8668   88.7224   10.3212 C.3     1  UNL1        0.1149
     12 N          61.9979   88.6037   11.5382 N.am    1  UNL1       -0.2732
     13 C          62.1922   89.5413   12.6928 C.2     1  UNL1        0.2636
     14 O          61.3233   89.4225   13.9097 O.2     1  UNL1       -0.2711
     15 C          60.9347   87.5474   11.6004 C.3     1  UNL1        0.1149
     16 C          60.7404   86.6099   10.4457 C.3     1  UNL1        0.1124
     17 C          60.0639   85.6558    7.4370 C.ar    1  UNL1        0.1518
     18 C          59.8697   84.7183    6.2823 C.ar    1  UNL1        0.0382
     19 C          61.0266   83.9160    5.7648 C.ar    1  UNL1        0.0032
     20 C          62.3778   84.0513    6.4019 C.ar    1  UNL1        0.0015
     21 C          62.5720   84.9888    7.5566 C.ar    1  UNL1        0.0176
     22 C          61.4150   85.7911    8.0741 C.ar    1  UNL1        0.0824
     23 O          58.9069   86.4581    7.9545 O.3     1  UNL1       -0.4715
     24 C          58.9596   87.9568    7.9227 C.3     1  UNL1        0.2374
     25 C          59.4791   88.6633    6.7058 C.3     1  UNL1        0.1894
     26 C          59.5622   90.7918    5.2182 C.3     1  UNL1        0.1743
     27 O          58.9208   90.0010    6.3197 O.3     1  UNL1       -0.3471
     28 C          66.6452   94.3897   11.5684 C.ar    1  UNL1        0.0766
     29 C          66.3272   95.8451   11.7439 C.ar    1  UNL1        0.1033
     30 N          66.8881   96.8560   10.7881 N.ar    1  UNL1       -0.2422
     31 C          67.7670   96.4115    9.6568 C.ar    1  UNL1        0.0988
     32 C          68.0850   94.9560    9.4812 C.ar    1  UNL1        0.0247
     33 C          67.5241   93.9453   10.4370 C.ar    1  UNL1        0.0788
     34 C          67.8421   92.4899   10.2615 C.3     1  UNL1        0.4188
     35 F          68.1601   91.0344   10.0861 F       1  UNL1       -0.1659
     36 F          68.5051   92.4725   11.6069 F       1  UNL1       -0.1659
     37 F          67.1791   92.5072    8.9161 F       1  UNL1       -0.1659
     38 O          63.4592   90.1051   14.0327 O.3     1  UNL1       -0.4723
     39 C          63.6595   88.6413   14.2918 C.ar    1  UNL1        0.1390
     40 C          63.6165   88.1154   15.6959 C.ar    1  UNL1        0.0369
     41 C          63.8167   86.6515   15.9550 C.ar    1  UNL1        0.0070
     42 C          64.0600   85.7136   14.8100 C.ar    1  UNL1        0.0716
     43 C          64.1030   86.2395   13.4059 C.ar    1  UNL1        0.0070
     44 C          63.9027   87.7033   13.1468 C.ar    1  UNL1        0.0369
     45 C          64.2603   84.2498   15.0691 C.3     1  UNL1        0.4186
     46 F          64.4605   82.7860   15.3284 F       1  UNL1       -0.1659
     47 F          65.5865   84.3075   14.3709 F       1  UNL1       -0.1659
     48 F          62.9340   84.1921   15.7675 F       1  UNL1       -0.1659
     49 C          64.9625   91.3572   14.4358 C.3     1  UNL1        0.0556
     50 C          64.2277   91.9362   15.6084 C.3     1  UNL1        0.1390
     51 O          65.1129   93.0145   16.1593 O.3     1  UNL1       -0.3819
     52 H          65.9689   92.6334   16.4103 H       1  UNL1        0.2104
@<TRIPOS>BOND
     1    26    27    1
     2    27    25    1
     3    25    24    1
     4    24    23    1
     5    23    17    1
     6    17    18   ar
     7    18    19   ar
     8    19    20   ar
     9    20    21   ar
    10    21    22   ar
    11    22     9    1
    12     9    10    1
    13    10    11    1
    14    11    12    1
    15    12    13   am
    16    13    14    2
    17    13     1    1
    18     1    38    1
    19    38    39    1
    20    39    40   ar
    21    40    41   ar
    22    41    42   ar
    23    42    45    1
    24    45    46    1
    25    45    47    1
    26    45    48    1
    27    42    43   ar
    28    43    44   ar
    29     1     2    1
    30     2     3    1
    31     3     4    1
    32     4     5    1
    33     5     6   am
    34     6     7    2
    35     6    28    1
    36    28    29   ar
    37    29    30   ar
    38    30    31   ar
    39    31    32   ar
    40    32    33   ar
    41    33    34    1
    42    34    35    1
    43    34    36    1
    44    34    37    1
    45     5     8    1
    46     8    49    1
    47    49    50    1
    48    50    51    1
    49    12    15    1
    50    15    16    1
    51    22    17   ar
    52    16     9    1
    53     8     1    1
    54    44    39   ar
    55    33    28   ar
    56    51    52    1
@<TRIPOS>MOLECULE
*****
 52 56 0 0 0
SMALL
GASTEIGER

@<TRIPOS>ATOM
      1 C          63.2244   90.6751   12.6158 C.3     1  UNL1        0.2170
      2 C          62.6398   90.7870   11.2390 C.3     1  UNL1        0.0525
      3 C          63.2037   91.7765   10.2628 C.3     1  UNL1        0.0257
      4 C          64.3523   92.6541   10.6635 C.3     1  UNL1        0.0939
      5 N          64.9370   92.5422   12.0404 N.am    1  UNL1       -0.2737
      6 C          66.0856   93.4197   12.4410 C.2     1  UNL1        0.2506
      7 O          66.6703   93.3078   13.8179 O.2     1  UNL1       -0.2699
      8 C          64.3730   91.5527   13.0164 C.3     1  UNL1        0.1230
      9 N          61.5189   86.7570    9.3007 N.pl3   1  UNL1       -0.3017
     10 C          62.5942   87.7992    9.2126 C.3     1  UNL1        0.1124
     11 C          62.8043   88.7578   10.3469 C.3     1  UNL1        0.1149
     12 N          61.9391   88.6743   11.5695 N.am    1  UNL1       -0.2732
     13 C          62.1492   89.6329   12.7039 C.2     1  UNL1        0.2636
     14 O          61.2840   89.5494   13.9263 O.2     1  UNL1       -0.2711
     15 C          60.8638   87.6322   11.6576 C.3     1  UNL1        0.1149
     16 C          60.6538   86.6735   10.5231 C.3     1  UNL1        0.1124
     17 C          62.3657   84.7874    7.8332 C.ar    1  UNL1        0.1518
     18 C          62.1556   83.8288    6.6988 C.ar    1  UNL1        0.0382
     19 C          60.8887   83.8812    5.8974 C.ar    1  UNL1        0.0032
     20 C          59.8319   84.8922    6.2305 C.ar    1  UNL1        0.0015
     21 C          60.0420   85.8508    7.3649 C.ar    1  UNL1        0.0176
     22 C          61.3089   85.7983    8.1662 C.ar    1  UNL1        0.0824
     23 O          63.6326   84.7350    8.6345 O.3     1  UNL1       -0.4715
     24 C          63.7611   83.7655    9.7719 C.3     1  UNL1        0.2374
     25 C          63.1295   84.0755   11.0966 C.3     1  UNL1        0.1894
     26 C          63.3037   81.6490   12.0089 C.3     1  UNL1        0.1743
     27 O          62.5869   82.9652   11.9470 O.3     1  UNL1       -0.3471
     28 C          66.6496   94.4092   11.4649 C.ar    1  UNL1        0.0766
     29 C          66.3199   95.8664   11.5991 C.ar    1  UNL1        0.1033
     30 N          66.8839   96.8559   10.6230 N.ar    1  UNL1       -0.2422
     31 C          67.7775   96.3883    9.5127 C.ar    1  UNL1        0.0988
     32 C          68.1071   94.9311    9.3785 C.ar    1  UNL1        0.0247
     33 C          67.5432   93.9416   10.3545 C.ar    1  UNL1        0.0788
     34 C          67.8728   92.4845   10.2204 C.3     1  UNL1        0.4188
     35 F          68.2024   91.0272   10.0862 F       1  UNL1       -0.1659
     36 F          67.5444   92.5448    8.7580 F       1  UNL1       -0.1659
     37 F          68.2012   92.4240   11.6827 F       1  UNL1       -0.1659
     38 O          63.4356   90.2012   14.0232 O.3     1  UNL1       -0.4723
     39 C          63.6634   88.7442   14.2977 C.ar    1  UNL1        0.1390
     40 C          63.6280   88.2321   15.7071 C.ar    1  UNL1        0.0369
     41 C          63.8558   86.7751   15.9817 C.ar    1  UNL1        0.0070
     42 C          64.1190   85.8303   14.8468 C.ar    1  UNL1        0.0716
     43 C          64.1544   86.3424   13.4374 C.ar    1  UNL1        0.0070
     44 C          63.9266   87.7994   13.1628 C.ar    1  UNL1        0.0369
     45 C          64.3467   84.3734   15.1214 C.3     1  UNL1        0.4186
     46 F          64.5744   82.9164   15.3961 F       1  UNL1       -0.1659
     47 F          65.7535   84.4979   14.6162 F       1  UNL1       -0.1659
     48 F          62.9399   84.2488   15.6267 F       1  UNL1       -0.1659
     49 C          64.9577   91.4407   14.3933 C.3     1  UNL1        0.0556
     50 C          64.2276   92.0219   15.5677 C.3     1  UNL1        0.1390
     51 O          65.2389   92.8317   16.3236 O.3     1  UNL1       -0.3819
     52 H          65.9756   92.2604   16.5915 H       1  UNL1        0.2104
@<TRIPOS>BOND
     1    26    27    1
     2    27    25    1
     3    25    24    1
     4    24    23    1
     5    23    17    1
     6    17    18   ar
     7    18    19   ar
     8    19    20   ar
     9    20    21   ar
    10    21    22   ar
    11    22     9    1
    12     9    10    1
    13    10    11    1
    14    11    12    1
    15    12    13   am
    16    13    14    2
    17    13     1    1
    18     1    38    1
    19    38    39    1
    20    39    40   ar
    21    40    41   ar
    22    41    42   ar
    23    42    45    1
    24    45    46    1
    25    45    47    1
    26    45    48    1
    27    42    43   ar
    28    43    44   ar
    29     1     2    1
    30     2     3    1
    31     3     4    1
    32     4     5    1
    33     5     6   am
    34     6     7    2
    35     6    28    1
    36    28    29   ar
    37    29    30   ar
    38    30    31   ar
    39    31    32   ar
    40    32    33   ar
    41    33    34    1
    42    34    35    1
    43    34    36    1
    44    34    37    1
    45     5     8    1
    46     8    49    1
    47    49    50    1
    48    50    51    1
    49    12    15    1
    50    15    16    1
    51    22    17   ar
    52    16     9    1
    53     8     1    1
    54    44    39   ar
    55    33    28   ar
    56    51    52    1
@<TRIPOS>MOLECULE
*****
 52 56 0 0 0
SMALL
GASTEIGER

@<TRIPOS>ATOM
      1 C          63.1071   90.3548   12.8511 C.3     1  UNL1        0.2170
      2 C          63.1734   89.5177   14.0941 C.3     1  UNL1        0.0525
      3 C          64.2476   89.7684   15.1106 C.3     1  UNL1        0.0257
      4 C          65.2553   90.8561   14.8842 C.3     1  UNL1        0.0939
      5 N          65.1890   91.6932   13.6412 N.am    1  UNL1       -0.2737
      6 C          66.1967   92.7808   13.4148 C.2     1  UNL1        0.2506
      7 O          66.1304   93.6179   12.1718 O.2     1  UNL1       -0.2699
      8 C          64.1148   91.4424   12.6247 C.3     1  UNL1        0.1230
      9 N          62.5746   85.0196   12.1420 N.pl3   1  UNL1       -0.3017
     10 C          63.7468   85.9260   12.3754 C.3     1  UNL1        0.1124
     11 C          63.5336   87.4022   12.5340 C.3     1  UNL1        0.1149
     12 N          62.1481   87.9722   12.4591 N.am    1  UNL1       -0.2732
     13 C          61.9348   89.4484   12.6177 C.2     1  UNL1        0.2636
     14 O          60.5494   90.0184   12.5428 O.2     1  UNL1       -0.2711
     15 C          60.9759   87.0659   12.2257 C.3     1  UNL1        0.1149
     16 C          61.1892   85.5895   12.0672 C.3     1  UNL1        0.1124
     17 C          62.4777   82.6144   13.1196 C.ar    1  UNL1        0.1518
     18 C          62.6910   81.1382   12.9610 C.ar    1  UNL1        0.0382
     19 C          63.2145   80.5909   11.6663 C.ar    1  UNL1        0.0032
     20 C          63.5248   81.5198   10.5302 C.ar    1  UNL1        0.0015
     21 C          63.3115   82.9960   10.6888 C.ar    1  UNL1        0.0176
     22 C          62.7879   83.5433   11.9835 C.ar    1  UNL1        0.0824
     23 O          61.9541   83.1617   14.4143 O.3     1  UNL1       -0.4715
     24 C          62.9096   83.6221   15.4750 C.3     1  UNL1        0.2374
     25 C          63.0088   85.0800   15.8135 C.3     1  UNL1        0.1894
     26 C          62.6008   86.4611   17.9760 C.3     1  UNL1        0.1743
     27 O          62.0645   85.6845   16.8101 O.3     1  UNL1       -0.3471
     28 C          67.2709   93.0315   14.4313 C.ar    1  UNL1        0.0766
     29 C          66.9807   93.8766   15.6362 C.ar    1  UNL1        0.1033
     30 N          68.0549   94.1273   16.6527 N.ar    1  UNL1       -0.2422
     31 C          69.4192   93.5329   16.4644 C.ar    1  UNL1        0.0988
     32 C          69.7093   92.6878   15.2595 C.ar    1  UNL1        0.0247
     33 C          68.6352   92.4372   14.2431 C.ar    1  UNL1        0.0788
     34 C          68.9253   91.5921   13.0382 C.3     1  UNL1        0.4188
     35 F          69.2155   90.7470   11.8332 F       1  UNL1       -0.1659
     36 F          70.3819   91.9322   13.1503 F       1  UNL1       -0.1659
     37 F          67.4687   91.2519   12.9260 F       1  UNL1       -0.1659
     38 O          62.6336   90.8770   11.5271 O.3     1  UNL1       -0.4723
     39 C          61.9223   89.9649   10.5720 C.ar    1  UNL1        0.1390
     40 C          60.4887   90.2237   10.2145 C.ar    1  UNL1        0.0369
     41 C          59.7774   89.3115    9.2594 C.ar    1  UNL1        0.0070
     42 C          60.4998   88.1406    8.6619 C.ar    1  UNL1        0.0716
     43 C          61.9333   87.8818    9.0194 C.ar    1  UNL1        0.0070
     44 C          62.6446   88.7939    9.9744 C.ar    1  UNL1        0.0369
     45 C          59.7885   87.2285    7.7069 C.3     1  UNL1        0.4186
     46 F          59.0772   86.3164    6.7518 F       1  UNL1       -0.1659
     47 F          58.7616   88.2926    7.4552 F       1  UNL1       -0.1659
     48 F          60.8153   86.1644    7.9585 F       1  UNL1       -0.1659
     49 C          64.0484   92.2795   11.3817 C.3     1  UNL1        0.0556
     50 C          65.0169   92.0376   10.2619 C.3     1  UNL1        0.1390
     51 O          65.4612   93.3936    9.7996 O.3     1  UNL1       -0.3819
     52 H          64.6889   93.9078    9.5165 H       1  UNL1        0.2104
@<TRIPOS>BOND
     1    26    27    1
     2    27    25    1
     3    25    24    1
     4    24    23    1
     5    23    17    1
     6    17    18   ar
     7    18    19   ar
     8    19    20   ar
     9    20    21   ar
    10    21    22   ar
    11    22     9    1
    12     9    10    1
    13    10    11    1
    14    11    12    1
    15    12    13   am
    16    13    14    2
    17    13     1    1
    18     1    38    1
    19    38    39    1
    20    39    40   ar
    21    40    41   ar
    22    41    42   ar
    23    42    45    1
    24    45    46    1
    25    45    47    1
    26    45    48    1
    27    42    43   ar
    28    43    44   ar
    29     1     2    1
    30     2     3    1
    31     3     4    1
    32     4     5    1
    33     5     6   am
    34     6     7    2
    35     6    28    1
    36    28    29   ar
    37    29    30   ar
    38    30    31   ar
    39    31    32   ar
    40    32    33   ar
    41    33    34    1
    42    34    35    1
    43    34    36    1
    44    34    37    1
    45     5     8    1
    46     8    49    1
    47    49    50    1
    48    50    51    1
    49    12    15    1
    50    15    16    1
    51    22    17   ar
    52    16     9    1
    53     8     1    1
    54    44    39   ar
    55    33    28   ar
    56    51    52    1
@<TRIPOS>MOLECULE
*****
 52 56 0 0 0
SMALL
GASTEIGER

@<TRIPOS>ATOM
      1 C          63.2953   90.0485   12.8519 C.3     1  UNL1        0.2170
      2 C          63.5082   89.0815   13.9785 C.3     1  UNL1        0.0525
      3 C          64.7113   89.2152   14.8644 C.3     1  UNL1        0.0257
      4 C          65.7014   90.3159   14.6236 C.3     1  UNL1        0.0939
      5 N          65.4885   91.2830   13.4969 N.am    1  UNL1       -0.2737
      6 C          66.4786   92.3837   13.2560 C.2     1  UNL1        0.2506
      7 O          66.2657   93.3508   12.1293 O.2     1  UNL1       -0.2699
      8 C          64.2854   91.1492   12.6110 C.3     1  UNL1        0.1230
      9 N          62.5663   84.7399   12.1193 N.pl3   1  UNL1       -0.3017
     10 C          63.7763   85.6097   12.2904 C.3     1  UNL1        0.1124
     11 C          63.6160   87.0893   12.4776 C.3     1  UNL1        0.1149
     12 N          62.2456   87.6991   12.4936 N.am    1  UNL1       -0.2732
     13 C          62.0853   89.1787   12.6808 C.2     1  UNL1        0.2636
     14 O          60.7150   89.7885   12.6968 O.2     1  UNL1       -0.2711
     15 C          61.0356   86.8293   12.3225 C.3     1  UNL1        0.1149
     16 C          61.1960   85.3496   12.1353 C.3     1  UNL1        0.1124
     17 C          62.4507   82.3257   13.0725 C.ar    1  UNL1        0.1518
     18 C          62.6111   80.8462   12.8854 C.ar    1  UNL1        0.0382
     19 C          63.0474   80.3011   11.5578 C.ar    1  UNL1        0.0032
     20 C          63.3234   81.2355   10.4174 C.ar    1  UNL1        0.0015
     21 C          63.1630   82.7151   10.6046 C.ar    1  UNL1        0.0176
     22 C          62.7267   83.2602   11.9321 C.ar    1  UNL1        0.0824
     23 O          62.0144   82.8708   14.4001 O.3     1  UNL1       -0.4715
     24 C          63.0347   83.3874   15.3708 C.3     1  UNL1        0.2374
     25 C          63.0533   84.8421   15.7361 C.3     1  UNL1        0.1894
     26 C          62.4780   86.5631   17.5954 C.3     1  UNL1        0.1743
     27 O          62.1028   85.3678   16.7706 O.3     1  UNL1       -0.3471
     28 C          67.6817   92.5174   14.1419 C.ar    1  UNL1        0.0766
     29 C          69.0587   92.3891   13.5611 C.ar    1  UNL1        0.1033
     30 N          70.2618   92.5228   14.4470 N.ar    1  UNL1       -0.2422
     31 C          70.0878   92.7848   15.9136 C.ar    1  UNL1        0.0988
     32 C          68.7107   92.9132   16.4944 C.ar    1  UNL1        0.0247
     33 C          67.5078   92.7795   15.6086 C.ar    1  UNL1        0.0788
     34 C          66.1307   92.9079   16.1893 C.3     1  UNL1        0.4188
     35 F          64.7536   93.0362   16.7702 F       1  UNL1       -0.1659
     36 F          66.5108   91.9713   17.2976 F       1  UNL1       -0.1659
     37 F          65.7505   93.8444   15.0811 F       1  UNL1       -0.1659
     38 O          62.6621   90.7135   11.6657 O.3     1  UNL1       -0.4723
     39 C          61.9093   89.8940   10.6598 C.ar    1  UNL1        0.1390
     40 C          60.4873   90.2361   10.3269 C.ar    1  UNL1        0.0369
     41 C          59.7346   89.4166    9.3209 C.ar    1  UNL1        0.0070
     42 C          60.4039   88.2552    8.6479 C.ar    1  UNL1        0.0716
     43 C          61.8259   87.9131    8.9807 C.ar    1  UNL1        0.0070
     44 C          62.5786   88.7326    9.9867 C.ar    1  UNL1        0.0369
     45 C          59.6511   87.4358    7.6420 C.3     1  UNL1        0.4186
     46 F          58.8982   86.6165    6.6360 F       1  UNL1       -0.1659
     47 F          60.1142   86.1797    8.3183 F       1  UNL1       -0.1659
     48 F          59.1878   88.6920    6.9656 F       1  UNL1       -0.1659
     49 C          64.0725   92.1164   11.4843 C.3     1  UNL1        0.0556
     50 C          64.8732   91.9859   10.2225 C.3     1  UNL1        0.1390
     51 O          65.3090   93.3757    9.8641 O.3     1  UNL1       -0.3819
     52 H          64.5283   93.9402    9.7505 H       1  UNL1        0.2104
@<TRIPOS>BOND
     1    26    27    1
     2    27    25    1
     3    25    24    1
     4    24    23    1
     5    23    17    1
     6    17    18   ar
     7    18    19   ar
     8    19    20   ar
     9    20    21   ar
    10    21    22   ar
    11    22     9    1
    12     9    10    1
    13    10    11    1
    14    11    12    1
    15    12    13   am
    16    13    14    2
    17    13     1    1
    18     1    38    1
    19    38    39    1
    20    39    40   ar
    21    40    41   ar
    22    41    42   ar
    23    42    45    1
    24    45    46    1
    25    45    47    1
    26    45    48    1
    27    42    43   ar
    28    43    44   ar
    29     1     2    1
    30     2     3    1
    31     3     4    1
    32     4     5    1
    33     5     6   am
    34     6     7    2
    35     6    28    1
    36    28    29   ar
    37    29    30   ar
    38    30    31   ar
    39    31    32   ar
    40    32    33   ar
    41    33    34    1
    42    34    35    1
    43    34    36    1
    44    34    37    1
    45     5     8    1
    46     8    49    1
    47    49    50    1
    48    50    51    1
    49    12    15    1
    50    15    16    1
    51    22    17   ar
    52    16     9    1
    53     8     1    1
    54    44    39   ar
    55    33    28   ar
    56    51    52    1
