@<TRIPOS>MOLECULE
*****
 28 30 0 0 0
SMALL
GASTEIGER

@<TRIPOS>ATOM
      1 N          63.0532   90.5797   11.7020 N.am    1  UNL1       -0.2438
      2 C          63.5398   91.3158   10.4891 C.3     1  UNL1        0.1009
      3 C          64.6578   92.3082   10.6123 C.3     1  UNL1        0.0662
      4 C          65.2892   92.5646   11.9486 C.3     1  UNL1        0.1600
      5 O          64.8026   91.8284   13.1616 O.3     1  UNL1       -0.4374
      6 C          63.6846   90.8360   13.0383 C.2     1  UNL1        0.4051
      7 O          63.1980   90.0999   14.2513 O.2     1  UNL1       -0.2262
      8 C          66.0919   93.5029   11.0969 C.ar    1  UNL1        0.0138
      9 C          66.0414   94.9796   11.3554 C.ar    1  UNL1       -0.0010
     10 C          66.8441   95.9179   10.5038 C.ar    1  UNL1       -0.0002
     11 C          67.6972   95.3795    9.3937 C.ar    1  UNL1       -0.0000
     12 C          67.7476   93.9028    9.1351 C.ar    1  UNL1       -0.0002
     13 C          66.9449   92.9645    9.9868 C.ar    1  UNL1       -0.0010
     14 C          60.5221   90.0120   11.8482 C.3     1  UNL1        0.0265
     15 C          61.9352   89.5873   11.5787 C.3     1  UNL1        0.1011
     16 C          62.2304   88.1700   11.1859 C.ar    1  UNL1       -0.0041
     17 C          62.0290   87.7275    9.7669 C.ar    1  UNL1       -0.0022
     18 C          62.3242   86.3103    9.3742 C.ar    1  UNL1        0.0064
     19 C          62.8207   85.3355   10.4005 C.ar    1  UNL1        0.0345
     20 BR         63.1159   83.9182   10.0077 Br      1  UNL1       -0.0490
     21 C          63.0221   85.7779   11.8195 C.ar    1  UNL1        0.0064
     22 C          62.7269   87.1952   12.2122 C.ar    1  UNL1       -0.0022
     23 C          66.1994   93.1468   12.9891 C.3     1  UNL1        0.0714
     24 C          66.9144   92.2439   13.9500 C.3     1  UNL1        0.0922
     25 C          66.0853   92.7860   15.0764 C.3     1  UNL1        0.0294
     26 C          67.7435   91.7018   12.8237 C.3     1  UNL1        0.0294
     27 O          67.6294   91.3410   14.9110 O.3     1  UNL1       -0.3866
     28 H          67.2780   91.4769   15.8048 H       1  UNL1        0.2102
@<TRIPOS>BOND
     1    15    14    1
     2    15    16    1
     3    16    17   ar
     4    17    18   ar
     5    18    19   ar
     6    19    20    1
     7    19    21   ar
     8    21    22   ar
     9    15     1    1
    10     1     2    1
    11     2     3    1
    12     3     4    1
    13     4    23    1
    14    23    24    1
    15    24    25    1
    16    24    26    1
    17    24    27    1
    18     4     8    1
    19     8     9   ar
    20     9    10   ar
    21    10    11   ar
    22    11    12   ar
    23    12    13   ar
    24     4     5    1
    25     5     6    1
    26     6     7    2
    27    22    16   ar
    28     6     1   am
    29    13     8   ar
    30    27    28    1
@<TRIPOS>MOLECULE
*****
 28 30 0 0 0
SMALL
GASTEIGER

@<TRIPOS>ATOM
      1 N          63.2456   90.3435   11.9415 N.am    1  UNL1       -0.2438
      2 C          63.9004   90.1422   13.2758 C.3     1  UNL1        0.1009
      3 C          65.0732   90.9897   13.6713 C.3     1  UNL1        0.0662
      4 C          65.5911   92.0386   12.7324 C.3     1  UNL1        0.1600
      5 O          64.9362   92.2400   11.3980 O.3     1  UNL1       -0.4374
      6 C          63.7635   91.3925   11.0025 C.2     1  UNL1        0.4051
      7 O          63.1087   91.5938    9.6681 O.2     1  UNL1       -0.2262
      8 C          66.5403   92.2238   13.8791 C.ar    1  UNL1        0.0138
      9 C          68.0110   92.0086   13.6775 C.ar    1  UNL1       -0.0010
     10 C          68.9602   92.1939   14.8241 C.ar    1  UNL1       -0.0002
     11 C          68.4386   92.5943   16.1723 C.ar    1  UNL1       -0.0000
     12 C          66.9679   92.8095   16.3739 C.ar    1  UNL1       -0.0002
     13 C          66.0187   92.6243   15.2272 C.ar    1  UNL1       -0.0010
     14 C          60.6844   90.0597   11.6106 C.3     1  UNL1        0.0265
     15 C          62.0729   89.4960   11.5460 C.3     1  UNL1        0.1011
     16 C          62.2887   88.0847   11.0858 C.ar    1  UNL1       -0.0041
     17 C          62.6584   87.0210   12.0767 C.ar    1  UNL1       -0.0022
     18 C          62.8742   85.6097   11.6165 C.ar    1  UNL1        0.0064
     19 C          62.7204   85.2622   10.1654 C.ar    1  UNL1        0.0345
     20 BR         62.9362   83.8509    9.7053 Br      1  UNL1       -0.0490
     21 C          62.3508   86.3259    9.1746 C.ar    1  UNL1        0.0064
     22 C          62.1349   87.7371    9.6347 C.ar    1  UNL1       -0.0022
     23 C          66.4386   93.1519   12.1917 C.3     1  UNL1        0.0714
     24 C          66.3915   93.4887   10.7308 C.3     1  UNL1        0.0922
     25 C          65.5578   94.6977   11.0365 C.3     1  UNL1        0.0294
     26 C          67.2252   92.2798   10.4252 C.3     1  UNL1        0.0294
     27 O          66.3444   93.8257    9.2700 O.3     1  UNL1       -0.3866
     28 H          65.8259   94.6354    9.1415 H       1  UNL1        0.2102
@<TRIPOS>BOND
     1    15    14    1
     2    15    16    1
     3    16    17   ar
     4    17    18   ar
     5    18    19   ar
     6    19    20    1
     7    19    21   ar
     8    21    22   ar
     9    15     1    1
    10     1     2    1
    11     2     3    1
    12     3     4    1
    13     4    23    1
    14    23    24    1
    15    24    25    1
    16    24    26    1
    17    24    27    1
    18     4     8    1
    19     8     9   ar
    20     9    10   ar
    21    10    11   ar
    22    11    12   ar
    23    12    13   ar
    24     4     5    1
    25     5     6    1
    26     6     7    2
    27    22    16   ar
    28     6     1   am
    29    13     8   ar
    30    27    28    1
@<TRIPOS>MOLECULE
*****
 28 30 0 0 0
SMALL
GASTEIGER

@<TRIPOS>ATOM
      1 N          62.9297   90.6611   11.9535 N.am    1  UNL1       -0.2438
      2 C          63.4357   91.2633   10.6763 C.3     1  UNL1        0.1009
      3 C          64.6268   92.1748   10.6972 C.3     1  UNL1        0.0662
      4 C          65.3119   92.4840   11.9952 C.3     1  UNL1        0.1600
      5 O          64.8059   91.8818   13.2725 O.3     1  UNL1       -0.4374
      6 C          63.6148   90.9703   13.2516 C.2     1  UNL1        0.4051
      7 O          63.1088   90.3681   14.5288 O.2     1  UNL1       -0.2262
      8 C          66.1579   93.2910   11.0554 C.ar    1  UNL1        0.0138
      9 C          67.0655   92.5996   10.0816 C.ar    1  UNL1       -0.0010
     10 C          67.9115   93.4066    9.1419 C.ar    1  UNL1       -0.0002
     11 C          67.8498   94.9050    9.1760 C.ar    1  UNL1       -0.0000
     12 C          66.9422   95.5964   10.1497 C.ar    1  UNL1       -0.0002
     13 C          66.0962   94.7894   11.0895 C.ar    1  UNL1       -0.0010
     14 C          60.6748   89.8814   12.9820 C.3     1  UNL1        0.0265
     15 C          61.7385   89.7496   11.9326 C.3     1  UNL1        0.1011
     16 C          61.6111   88.7063   10.8624 C.ar    1  UNL1       -0.0041
     17 C          62.3578   87.4112   10.9849 C.ar    1  UNL1       -0.0022
     18 C          62.2303   86.3680    9.9146 C.ar    1  UNL1        0.0064
     19 C          61.3563   86.6199    8.7219 C.ar    1  UNL1        0.0345
     20 BR         61.2289   85.5766    7.6517 Br      1  UNL1       -0.0490
     21 C          60.6096   87.9151    8.5994 C.ar    1  UNL1        0.0064
     22 C          60.7371   88.9583    9.6697 C.ar    1  UNL1       -0.0022
     23 C          66.2909   93.0736   12.9669 C.3     1  UNL1        0.0714
     24 C          66.9619   92.1957   13.9813 C.3     1  UNL1        0.0922
     25 C          66.1067   92.7896   15.0611 C.3     1  UNL1        0.0294
     26 C          67.8170   91.6017   12.9015 C.3     1  UNL1        0.0294
     27 O          67.6328   91.3178   14.9957 O.3     1  UNL1       -0.3866
     28 H          67.2560   91.4907   15.8727 H       1  UNL1        0.2102
@<TRIPOS>BOND
     1    15    14    1
     2    15    16    1
     3    16    17   ar
     4    17    18   ar
     5    18    19   ar
     6    19    20    1
     7    19    21   ar
     8    21    22   ar
     9    15     1    1
    10     1     2    1
    11     2     3    1
    12     3     4    1
    13     4    23    1
    14    23    24    1
    15    24    25    1
    16    24    26    1
    17    24    27    1
    18     4     8    1
    19     8     9   ar
    20     9    10   ar
    21    10    11   ar
    22    11    12   ar
    23    12    13   ar
    24     4     5    1
    25     5     6    1
    26     6     7    2
    27    22    16   ar
    28     6     1   am
    29    13     8   ar
    30    27    28    1
@<TRIPOS>MOLECULE
*****
 28 30 0 0 0
SMALL
GASTEIGER

@<TRIPOS>ATOM
      1 N          62.5735   88.0466   12.0952 N.am    1  UNL1       -0.2438
      2 C          62.3020   86.9845   11.0715 C.3     1  UNL1        0.1009
      3 C          62.7065   85.5649   11.3381 C.3     1  UNL1        0.0662
      4 C          63.3826   85.2074   12.6285 C.3     1  UNL1        0.1600
      5 O          63.6541   86.2696   13.6523 O.3     1  UNL1       -0.4374
      6 C          63.2496   87.6892   13.3857 C.2     1  UNL1        0.4051
      7 O          63.5211   88.7513   14.4094 O.2     1  UNL1       -0.2262
      8 C          63.3409   83.8584   11.9739 C.ar    1  UNL1        0.0138
      9 C          62.5443   82.7486   12.5933 C.ar    1  UNL1       -0.0010
     10 C          62.5026   81.3995   11.9387 C.ar    1  UNL1       -0.0002
     11 C          63.2574   81.1605   10.6647 C.ar    1  UNL1       -0.0000
     12 C          64.0540   82.2703   10.0453 C.ar    1  UNL1       -0.0002
     13 C          64.0957   83.6194   10.6999 C.ar    1  UNL1       -0.0010
     14 C          60.7172   89.8202   11.6969 C.3     1  UNL1        0.0265
     15 C          62.1689   89.4662   11.8286 C.3     1  UNL1        0.1011
     16 C          63.2160   90.5318   11.6936 C.ar    1  UNL1       -0.0041
     17 C          63.4542   91.1852   10.3646 C.ar    1  UNL1       -0.0022
     18 C          64.5013   92.2507   10.2297 C.ar    1  UNL1        0.0064
     19 C          65.3102   92.6628   11.4238 C.ar    1  UNL1        0.0345
     20 BR         66.3573   93.7284   11.2889 Br      1  UNL1       -0.0490
     21 C          65.0720   92.0094   12.7528 C.ar    1  UNL1        0.0064
     22 C          64.0249   90.9439   12.8877 C.ar    1  UNL1       -0.0022
     23 C          64.0442   84.3815   13.6916 C.3     1  UNL1        0.0714
     24 C          64.1755   84.9190   15.0857 C.3     1  UNL1        0.0922
     25 C          65.5900   85.3258   14.7957 C.3     1  UNL1        0.0294
     26 C          62.7612   84.5123   15.3758 C.3     1  UNL1        0.0294
     27 O          64.3070   85.4566   16.4799 O.3     1  UNL1       -0.3866
     28 H          65.1976   85.8204   16.6035 H       1  UNL1        0.2102
@<TRIPOS>BOND
     1    15    14    1
     2    15    16    1
     3    16    17   ar
     4    17    18   ar
     5    18    19   ar
     6    19    20    1
     7    19    21   ar
     8    21    22   ar
     9    15     1    1
    10     1     2    1
    11     2     3    1
    12     3     4    1
    13     4    23    1
    14    23    24    1
    15    24    25    1
    16    24    26    1
    17    24    27    1
    18     4     8    1
    19     8     9   ar
    20     9    10   ar
    21    10    11   ar
    22    11    12   ar
    23    12    13   ar
    24     4     5    1
    25     5     6    1
    26     6     7    2
    27    22    16   ar
    28     6     1   am
    29    13     8   ar
    30    27    28    1
@<TRIPOS>MOLECULE
*****
 28 30 0 0 0
SMALL
GASTEIGER

@<TRIPOS>ATOM
      1 N          63.3848   88.8810   12.6779 N.am    1  UNL1       -0.2438
      2 C          62.7704   89.0827   11.3245 C.3     1  UNL1        0.1009
      3 C          62.3218   87.8985   10.5205 C.3     1  UNL1        0.0662
      4 C          62.4875   86.5126   11.0699 C.3     1  UNL1        0.1600
      5 O          63.1020   86.3109   12.4234 O.3     1  UNL1       -0.4374
      6 C          63.5506   87.4951   13.2274 C.2     1  UNL1        0.4051
      7 O          64.1650   87.2934   14.5808 O.2     1  UNL1       -0.2262
      8 C          61.8543   86.1947    9.7477 C.ar    1  UNL1        0.0138
      9 C          60.4383   86.6080    9.4757 C.ar    1  UNL1       -0.0010
     10 C          59.8050   86.2900    8.1535 C.ar    1  UNL1       -0.0002
     11 C          60.5879   85.5587    7.1036 C.ar    1  UNL1       -0.0000
     12 C          62.0039   85.1454    7.3757 C.ar    1  UNL1       -0.0002
     13 C          62.6371   85.4634    8.6978 C.ar    1  UNL1       -0.0010
     14 C          63.5794   90.1082   14.9596 C.3     1  UNL1        0.0265
     15 C          63.8335   90.0652   13.4819 C.3     1  UNL1        0.1011
     16 C          64.5363   91.2064   12.8081 C.ar    1  UNL1       -0.0041
     17 C          64.2027   91.5599   11.3891 C.ar    1  UNL1       -0.0022
     18 C          64.9054   92.7010   10.7154 C.ar    1  UNL1        0.0064
     19 C          65.9417   93.4887   11.4608 C.ar    1  UNL1        0.0345
     20 BR         66.6445   94.6299   10.7871 Br      1  UNL1       -0.0490
     21 C          66.2753   93.1352   12.8799 C.ar    1  UNL1        0.0064
     22 C          65.5726   91.9941   13.5535 C.ar    1  UNL1       -0.0022
     23 C          62.4334   85.0163   11.1601 C.3     1  UNL1        0.0714
     24 C          63.3066   84.2921   12.1414 C.3     1  UNL1        0.0922
     25 C          62.2675   84.4823   13.2064 C.3     1  UNL1        0.0294
     26 C          64.3456   84.1019   11.0764 C.3     1  UNL1        0.0294
     27 O          64.1797   83.5678   13.1227 O.3     1  UNL1       -0.3866
     28 H          63.7344   83.5277   13.9836 H       1  UNL1        0.2102
@<TRIPOS>BOND
     1    15    14    1
     2    15    16    1
     3    16    17   ar
     4    17    18   ar
     5    18    19   ar
     6    19    20    1
     7    19    21   ar
     8    21    22   ar
     9    15     1    1
    10     1     2    1
    11     2     3    1
    12     3     4    1
    13     4    23    1
    14    23    24    1
    15    24    25    1
    16    24    26    1
    17    24    27    1
    18     4     8    1
    19     8     9   ar
    20     9    10   ar
    21    10    11   ar
    22    11    12   ar
    23    12    13   ar
    24     4     5    1
    25     5     6    1
    26     6     7    2
    27    22    16   ar
    28     6     1   am
    29    13     8   ar
    30    27    28    1
@<TRIPOS>MOLECULE
*****
 28 30 0 0 0
SMALL
GASTEIGER

@<TRIPOS>ATOM
      1 N          61.9962   89.4435   11.0931 N.am    1  UNL1       -0.2438
      2 C          62.7343   90.7486   11.0516 C.3     1  UNL1        0.1009
      3 C          63.7731   91.0560   12.0891 C.3     1  UNL1        0.0662
      4 C          64.0738   90.0583   13.1680 C.3     1  UNL1        0.1600
      5 O          63.3356   88.7531   13.2095 O.3     1  UNL1       -0.4374
      6 C          62.2968   88.4457   12.1721 C.2     1  UNL1        0.4051
      7 O          61.5587   87.1406   12.2135 O.2     1  UNL1       -0.2262
      8 C          65.0320   91.1484   13.5470 C.ar    1  UNL1        0.0138
      9 C          65.7713   91.0775   14.8502 C.ar    1  UNL1       -0.0010
     10 C          66.7295   92.1677   15.2291 C.ar    1  UNL1       -0.0002
     11 C          66.9483   93.3286   14.3048 C.ar    1  UNL1       -0.0000
     12 C          66.2089   93.3995   13.0016 C.ar    1  UNL1       -0.0002
     13 C          65.2508   92.3094   12.6226 C.ar    1  UNL1       -0.0010
     14 C          59.7739   90.0423    9.8877 C.3     1  UNL1        0.0265
     15 C          60.9573   89.1361   10.0556 C.3     1  UNL1        0.1011
     16 C          61.1019   87.9223    9.1861 C.ar    1  UNL1       -0.0041
     17 C          59.9608   87.4813    8.3182 C.ar    1  UNL1       -0.0022
     18 C          60.1054   86.2676    7.4487 C.ar    1  UNL1        0.0064
     19 C          61.3911   85.4949    7.4472 C.ar    1  UNL1        0.0345
     20 BR         61.5357   84.2812    6.5777 Br      1  UNL1       -0.0490
     21 C          62.5322   85.9360    8.3152 C.ar    1  UNL1        0.0064
     22 C          62.3876   87.1497    9.1846 C.ar    1  UNL1       -0.0022
     23 C          64.7073   89.4391   14.3786 C.3     1  UNL1        0.0714
     24 C          63.9061   88.5292   15.2618 C.3     1  UNL1        0.0922
     25 C          63.1805   89.7150   15.8253 C.3     1  UNL1        0.0294
     26 C          64.6317   87.3435   14.6983 C.3     1  UNL1        0.0294
     27 O          63.1048   87.6193   16.1450 O.3     1  UNL1       -0.3866
     28 H          62.4898   88.1462   16.6789 H       1  UNL1        0.2102
@<TRIPOS>BOND
     1    15    14    1
     2    15    16    1
     3    16    17   ar
     4    17    18   ar
     5    18    19   ar
     6    19    20    1
     7    19    21   ar
     8    21    22   ar
     9    15     1    1
    10     1     2    1
    11     2     3    1
    12     3     4    1
    13     4    23    1
    14    23    24    1
    15    24    25    1
    16    24    26    1
    17    24    27    1
    18     4     8    1
    19     8     9   ar
    20     9    10   ar
    21    10    11   ar
    22    11    12   ar
    23    12    13   ar
    24     4     5    1
    25     5     6    1
    26     6     7    2
    27    22    16   ar
    28     6     1   am
    29    13     8   ar
    30    27    28    1
@<TRIPOS>MOLECULE
*****
 28 30 0 0 0
SMALL
GASTEIGER

@<TRIPOS>ATOM
      1 N          63.4967   86.0449   13.8378 N.am    1  UNL1       -0.2438
      2 C          64.3899   87.0051   14.5659 C.3     1  UNL1        0.1009
      3 C          64.4714   88.4361   14.1239 C.3     1  UNL1        0.0662
      4 C          63.6597   88.9071   12.9538 C.3     1  UNL1        0.1600
      5 O          62.7664   87.9469   12.2256 O.3     1  UNL1       -0.4374
      6 C          62.6849   86.5159   12.6676 C.2     1  UNL1        0.4051
      7 O          61.7917   85.5557   11.9394 O.2     1  UNL1       -0.2262
      8 C          64.3549   90.1849   13.3197 C.ar    1  UNL1        0.0138
      9 C          64.6064   91.2285   12.2719 C.ar    1  UNL1       -0.0010
     10 C          65.3016   92.5064   12.6378 C.ar    1  UNL1       -0.0002
     11 C          65.7453   92.7405   14.0514 C.ar    1  UNL1       -0.0000
     12 C          65.4938   91.6970   15.0992 C.ar    1  UNL1       -0.0002
     13 C          64.7986   90.4191   14.7333 C.ar    1  UNL1       -0.0010
     14 C          63.4109   84.2796   15.7420 C.3     1  UNL1        0.0265
     15 C          63.4152   84.6138   14.2798 C.3     1  UNL1        0.1011
     16 C          63.3380   83.5170   13.2594 C.ar    1  UNL1       -0.0041
     17 C          64.2555   83.5305   12.0728 C.ar    1  UNL1       -0.0022
     18 C          64.1782   82.4337   11.0526 C.ar    1  UNL1        0.0064
     19 C          63.1836   81.3233   11.2189 C.ar    1  UNL1        0.0345
     20 BR         63.1064   80.2265   10.1986 Br      1  UNL1       -0.0490
     21 C          62.2661   81.3098   12.4055 C.ar    1  UNL1        0.0064
     22 C          62.3433   82.4066   13.4258 C.ar    1  UNL1       -0.0022
     23 C          63.0894   89.8218   11.9107 C.3     1  UNL1        0.0714
     24 C          61.7723   89.4993   11.2694 C.3     1  UNL1        0.0922
     25 C          61.0626   89.8835   12.5338 C.3     1  UNL1        0.0294
     26 C          62.4821   89.1151   10.0050 C.3     1  UNL1        0.0294
     27 O          60.4552   89.1768   10.6282 O.3     1  UNL1       -0.3866
     28 H          59.7387   89.3415   11.2608 H       1  UNL1        0.2102
@<TRIPOS>BOND
     1    15    14    1
     2    15    16    1
     3    16    17   ar
     4    17    18   ar
     5    18    19   ar
     6    19    20    1
     7    19    21   ar
     8    21    22   ar
     9    15     1    1
    10     1     2    1
    11     2     3    1
    12     3     4    1
    13     4    23    1
    14    23    24    1
    15    24    25    1
    16    24    26    1
    17    24    27    1
    18     4     8    1
    19     8     9   ar
    20     9    10   ar
    21    10    11   ar
    22    11    12   ar
    23    12    13   ar
    24     4     5    1
    25     5     6    1
    26     6     7    2
    27    22    16   ar
    28     6     1   am
    29    13     8   ar
    30    27    28    1
@<TRIPOS>MOLECULE
*****
 28 30 0 0 0
SMALL
GASTEIGER

@<TRIPOS>ATOM
      1 N          62.7392   86.6673   11.3889 N.am    1  UNL1       -0.2438
      2 C          62.8730   88.1464   11.5992 C.3     1  UNL1        0.1009
      3 C          63.3520   88.6761   12.9183 C.3     1  UNL1        0.0662
      4 C          63.6972   87.7267   14.0270 C.3     1  UNL1        0.1600
      5 O          63.5634   86.2475   13.8168 O.3     1  UNL1       -0.4374
      6 C          63.0844   85.7178   12.4977 C.2     1  UNL1        0.4051
      7 O          62.9506   84.2387   12.2874 O.2     1  UNL1       -0.2262
      8 C          63.9857   89.0338   14.7041 C.ar    1  UNL1        0.0138
      9 C          64.9751   89.9875   14.1029 C.ar    1  UNL1       -0.0010
     10 C          65.2636   91.2946   14.7799 C.ar    1  UNL1       -0.0002
     11 C          64.5626   91.6479   16.0581 C.ar    1  UNL1       -0.0000
     12 C          63.5732   90.6941   16.6593 C.ar    1  UNL1       -0.0002
     13 C          63.2847   89.3871   15.9823 C.ar    1  UNL1       -0.0010
     14 C          62.7126   84.7888    9.5943 C.3     1  UNL1        0.0265
     15 C          62.2602   86.1376   10.0698 C.3     1  UNL1        0.1011
     16 C          61.3286   86.9566    9.2263 C.ar    1  UNL1       -0.0041
     17 C          61.2467   88.4412    9.4246 C.ar    1  UNL1       -0.0022
     18 C          60.3152   89.2602    8.5811 C.ar    1  UNL1        0.0064
     19 C          59.4657   88.5946    7.5393 C.ar    1  UNL1        0.0345
     20 BR         58.5341   89.4137    6.6958 Br      1  UNL1       -0.0490
     21 C          59.5476   87.1101    7.3410 C.ar    1  UNL1        0.0064
     22 C          60.4791   86.2911    8.1845 C.ar    1  UNL1       -0.0022
     23 C          64.1426   87.2312   15.3710 C.3     1  UNL1        0.0714
     24 C          64.3180   85.7605   15.6077 C.3     1  UNL1        0.0922
     25 C          65.6136   85.7934   14.8524 C.3     1  UNL1        0.0294
     26 C          63.0225   85.7275   16.3630 C.3     1  UNL1        0.0294
     27 O          64.4935   84.2897   15.8444 O.3     1  UNL1       -0.3866
     28 H          65.3212   83.9928   15.4349 H       1  UNL1        0.2102
@<TRIPOS>BOND
     1    15    14    1
     2    15    16    1
     3    16    17   ar
     4    17    18   ar
     5    18    19   ar
     6    19    20    1
     7    19    21   ar
     8    21    22   ar
     9    15     1    1
    10     1     2    1
    11     2     3    1
    12     3     4    1
    13     4    23    1
    14    23    24    1
    15    24    25    1
    16    24    26    1
    17    24    27    1
    18     4     8    1
    19     8     9   ar
    20     9    10   ar
    21    10    11   ar
    22    11    12   ar
    23    12    13   ar
    24     4     5    1
    25     5     6    1
    26     6     7    2
    27    22    16   ar
    28     6     1   am
    29    13     8   ar
    30    27    28    1
@<TRIPOS>MOLECULE
*****
 28 30 0 0 0
SMALL
GASTEIGER

@<TRIPOS>ATOM
      1 N          62.8146   86.1456   11.3692 N.am    1  UNL1       -0.2438
      2 C          63.7439   86.5436   12.4773 C.3     1  UNL1        0.1009
      3 C          63.6610   87.9201   13.0677 C.3     1  UNL1        0.0662
      4 C          62.6487   88.8985   12.5501 C.3     1  UNL1        0.1600
      5 O          61.7193   88.5005   11.4419 O.3     1  UNL1       -0.4374
      6 C          61.8022   87.1241   10.8515 C.2     1  UNL1        0.4051
      7 O          60.8729   86.7261    9.7434 O.2     1  UNL1       -0.2262
      8 C          63.3058   89.7375   13.6057 C.ar    1  UNL1        0.0138
      9 C          62.8817   89.6075   15.0386 C.ar    1  UNL1       -0.0010
     10 C          63.5388   90.4466   16.0943 C.ar    1  UNL1       -0.0002
     11 C          64.6199   91.4155   15.7169 C.ar    1  UNL1       -0.0000
     12 C          65.0440   91.5454   14.2840 C.ar    1  UNL1       -0.0002
     13 C          64.3869   90.7064   13.2284 C.ar    1  UNL1       -0.0010
     14 C          63.1340   84.5972    9.3076 C.3     1  UNL1        0.0265
     15 C          62.8975   84.7692   10.7788 C.3     1  UNL1        0.1011
     16 C          62.7438   83.5648   11.6596 C.ar    1  UNL1       -0.0041
     17 C          62.9396   82.1904   11.0917 C.ar    1  UNL1       -0.0022
     18 C          62.7859   80.9860   11.9725 C.ar    1  UNL1        0.0064
     19 C          62.4366   81.1561   13.4213 C.ar    1  UNL1        0.0345
     20 BR         62.2830   79.9517   14.3022 Br      1  UNL1       -0.0490
     21 C          62.2408   82.5305   13.9893 C.ar    1  UNL1        0.0064
     22 C          62.3945   83.7349   13.1084 C.ar    1  UNL1       -0.0022
     23 C          61.8646   90.1683   12.3990 C.3     1  UNL1        0.0714
     24 C          61.0422   90.3998   11.1662 C.3     1  UNL1        0.0922
     25 C          62.2852   90.7487   10.4024 C.3     1  UNL1        0.0294
     26 C          59.7993   90.0509   11.9299 C.3     1  UNL1        0.0294
     27 O          60.2198   90.6313    9.9333 O.3     1  UNL1       -0.3866
     28 H          60.8004   90.8939    9.2019 H       1  UNL1        0.2102
@<TRIPOS>BOND
     1    15    14    1
     2    15    16    1
     3    16    17   ar
     4    17    18   ar
     5    18    19   ar
     6    19    20    1
     7    19    21   ar
     8    21    22   ar
     9    15     1    1
    10     1     2    1
    11     2     3    1
    12     3     4    1
    13     4    23    1
    14    23    24    1
    15    24    25    1
    16    24    26    1
    17    24    27    1
    18     4     8    1
    19     8     9   ar
    20     9    10   ar
    21    10    11   ar
    22    11    12   ar
    23    12    13   ar
    24     4     5    1
    25     5     6    1
    26     6     7    2
    27    22    16   ar
    28     6     1   am
    29    13     8   ar
    30    27    28    1
