@<TRIPOS>MOLECULE
*****
 38 44 0 0 0
SMALL
GASTEIGER

@<TRIPOS>ATOM
      1 N          60.9317   88.7475    8.5572 N.pl3   1  UNL1       -0.3075
      2 C          61.8370   89.4393    9.5329 C.3     1  UNL1        0.0911
      3 C          62.3942   88.6850   10.7036 C.3     1  UNL1        0.0258
      4 C          62.0462   87.2390   10.8986 C.3     1  UNL1        0.0256
      5 C          62.9519   87.5784   12.0452 C.2     1  UNL1       -0.0304
      6 C          62.8343   86.1723   12.5542 C.2     1  UNL1       -0.0219
      7 C          61.9286   85.8330   11.4077 C.3     1  UNL1        0.0303
      8 C          61.1409   86.5473    9.9229 C.3     1  UNL1        0.0258
      9 C          60.5837   87.3016    8.7522 C.3     1  UNL1        0.0911
     10 CA         59.6295   92.4372    2.9056 C.ar    1  UNL1        0.0952
     11 C          61.1135   92.3555    3.1075 C.ar    1  UNL1        0.0203
     12 C          61.6708   91.6012    4.2782 C.ar    1  UNL1        0.0031
     13 C          60.7440   90.9286    5.2470 C.ar    1  UNL1        0.0189
     14 C          61.3012   90.1744    6.4177 C.ar    1  UNL1        0.0160
     15 C          60.3744   89.5018    7.3865 C.ar    1  UNL1        0.0479
     16 C          58.8903   89.5835    7.1846 C.ar    1  UNL1        0.0161
     17 C          58.3330   90.3378    6.0139 C.ar    1  UNL1        0.0204
     18 C          59.2599   91.0104    5.0451 C.ar    1  UNL1        0.0814
     19 N          58.7027   91.7647    3.8744 N.ar    1  UNL1       -0.2442
     20 O          59.4159   94.6389    1.5429 O.co2   1  UNL1       -0.5430
     21 C          59.0722   93.1915    1.7349 C.2     1  UNL1        0.0905
     22 OXT        58.1712   92.4984    0.7562 O.co2   1  UNL1       -0.5430
     23 C          63.3915   85.4180   13.7249 C.ar    1  UNL1        0.0495
     24 C          63.6440   83.9405   13.7825 C.ar    1  UNL1        0.1238
     25 N          64.2027   83.6181   15.1367 N.ar    1  UNL1       -0.0773
     26 O          64.2955   84.8964   15.9161 O.2     1  UNL1       -0.3578
     27 C          63.7942   86.0088   15.0436 C.ar    1  UNL1        0.1535
     28 C          63.3835   82.9579   12.6795 C.ar    1  UNL1        0.0420
     29 C          62.3578   81.8789   12.8630 C.ar    1  UNL1        0.0600
     30 CL         61.5925   81.7826   14.1495 Cl      1  UNL1       -0.0822
     31 C          62.0974   80.8963   11.7599 C.ar    1  UNL1        0.0115
     32 C          62.8627   80.9927   10.4735 C.ar    1  UNL1        0.0017
     33 C          63.8884   82.0717   10.2900 C.ar    1  UNL1        0.0115
     34 C          64.1488   83.0543   11.3930 C.ar    1  UNL1        0.0600
     35 CL         65.1746   84.1333   11.2096 Cl      1  UNL1       -0.0822
     36 C          63.7103   87.4575   15.4231 C.3     1  UNL1        0.0602
     37 C          63.2654   88.5272   16.3760 C.3     1  UNL1        0.0081
     38 C          64.0098   88.8973   15.1274 C.3     1  UNL1        0.0081
@<TRIPOS>UNITY_ATOM_ATTR
20 1
charge -1
@<TRIPOS>BOND
     1    20    21   ar
     2    21    22   ar
     3    21    10    1
     4    10    11   ar
     5    11    12   ar
     6    12    13   ar
     7    13    14   ar
     8    14    15   ar
     9    15     1    1
    10     1     2    1
    11     2     3    1
    12     3     4    1
    13     4     5    1
    14     5     6    2
    15     6    23    1
    16    23    24   ar
    17    24    28    1
    18    28    29   ar
    19    29    30    1
    20    29    31   ar
    21    31    32   ar
    22    32    33   ar
    23    33    34   ar
    24    34    35    1
    25    24    25   ar
    26    25    26   ar
    27    26    27   ar
    28    27    36    1
    29    36    37    1
    30    37    38    1
    31     6     7    1
    32     4     8    1
    33     8     9    1
    34    15    16   ar
    35    16    17   ar
    36    17    18   ar
    37    18    19   ar
    38    19    10   ar
    39    18    13   ar
    40     9     1    1
    41     7     4    1
    42    27    23   ar
    43    38    36    1
    44    34    28   ar
@<TRIPOS>MOLECULE
*****
 38 44 0 0 0
SMALL
GASTEIGER

@<TRIPOS>ATOM
      1 N          59.7008   91.9633    3.8986 N.pl3   1  UNL1       -0.3075
      2 C          58.4841   91.4857    4.6346 C.3     1  UNL1        0.0911
      3 C          58.6353   90.6358    5.8614 C.3     1  UNL1        0.0258
      4 C          60.0031   90.2636    6.3521 C.3     1  UNL1        0.0256
      5 C          59.0549   89.6196    7.3197 C.2     1  UNL1       -0.0304
      6 C          60.2168   89.0618    8.0869 C.2     1  UNL1       -0.0219
      7 C          61.1649   89.7057    7.1194 C.3     1  UNL1        0.0303
      8 C          61.2196   90.7413    5.6160 C.3     1  UNL1        0.0258
      9 C          61.0685   91.5911    4.3893 C.3     1  UNL1        0.0911
     10 CA         58.3045   94.8575   -2.1780 C.ar    1  UNL1        0.0952
     11 C          57.6639   93.5024   -2.1207 C.ar    1  UNL1        0.0203
     12 C          57.8150   92.6526   -0.8940 C.ar    1  UNL1        0.0031
     13 C          58.6068   93.1578    0.2755 C.ar    1  UNL1        0.0189
     14 C          58.7579   92.3080    1.5023 C.ar    1  UNL1        0.0160
     15 C          59.5497   92.8132    2.6718 C.ar    1  UNL1        0.0479
     16 C          60.1903   94.1683    2.6146 C.ar    1  UNL1        0.0161
     17 C          60.0392   95.0182    1.3879 C.ar    1  UNL1        0.0204
     18 C          59.2474   94.5129    0.2183 C.ar    1  UNL1        0.0814
     19 N          59.0963   95.3627   -1.0084 N.ar    1  UNL1       -0.2442
     20 O          56.7855   96.0720   -3.9007 O.co2   1  UNL1       -0.5430
     21 C          58.1534   95.7074   -3.4047 C.2     1  UNL1        0.0905
     22 OXT        59.3701   96.1926   -4.1355 O.co2   1  UNL1       -0.5430
     23 C          60.3679   88.2119    9.3137 C.ar    1  UNL1        0.0495
     24 C          60.7823   86.7706    9.3422 C.ar    1  UNL1        0.1238
     25 N          60.8017   86.3220   10.7734 N.ar    1  UNL1       -0.0773
     26 O          60.3993   87.4862   11.6295 O.2     1  UNL1       -0.3578
     27 C          60.1312   88.6543   10.7274 C.ar    1  UNL1        0.1535
     28 C          61.1183   85.9260    8.1490 C.ar    1  UNL1        0.0420
     29 C          62.5126   85.4032    7.9688 C.ar    1  UNL1        0.0600
     30 CL         63.5710   85.7250    8.9818 Cl      1  UNL1       -0.0822
     31 C          62.8485   84.5586    6.7755 C.ar    1  UNL1        0.0115
     32 C          61.7901   84.2369    5.7625 C.ar    1  UNL1        0.0017
     33 C          60.3957   84.7596    5.9427 C.ar    1  UNL1        0.0115
     34 C          60.0598   85.6042    7.1360 C.ar    1  UNL1        0.0600
     35 CL         58.6655   86.1270    7.3162 Cl      1  UNL1       -0.0822
     36 C          59.7019   90.0240   11.1624 C.3     1  UNL1        0.0602
     37 C          58.6178   90.9774   11.5696 C.3     1  UNL1        0.0081
     38 C          60.0423   91.4432   11.5088 C.3     1  UNL1        0.0081
@<TRIPOS>UNITY_ATOM_ATTR
20 1
charge -1
@<TRIPOS>BOND
     1    20    21   ar
     2    21    22   ar
     3    21    10    1
     4    10    11   ar
     5    11    12   ar
     6    12    13   ar
     7    13    14   ar
     8    14    15   ar
     9    15     1    1
    10     1     2    1
    11     2     3    1
    12     3     4    1
    13     4     5    1
    14     5     6    2
    15     6    23    1
    16    23    24   ar
    17    24    28    1
    18    28    29   ar
    19    29    30    1
    20    29    31   ar
    21    31    32   ar
    22    32    33   ar
    23    33    34   ar
    24    34    35    1
    25    24    25   ar
    26    25    26   ar
    27    26    27   ar
    28    27    36    1
    29    36    37    1
    30    37    38    1
    31     6     7    1
    32     4     8    1
    33     8     9    1
    34    15    16   ar
    35    16    17   ar
    36    17    18   ar
    37    18    19   ar
    38    19    10   ar
    39    18    13   ar
    40     9     1    1
    41     7     4    1
    42    27    23   ar
    43    38    36    1
    44    34    28   ar
@<TRIPOS>MOLECULE
*****
 38 44 0 0 0
SMALL
GASTEIGER

@<TRIPOS>ATOM
      1 N          60.4027   91.5126    4.3986 N.pl3   1  UNL1       -0.3075
      2 C          61.7358   91.5288    3.7111 C.3     1  UNL1        0.0911
      3 C          61.9298   92.3486    2.4700 C.3     1  UNL1        0.0258
      4 C          60.7906   93.1523    1.9164 C.3     1  UNL1        0.0256
      5 C          61.9371   93.4105    0.9842 C.2     1  UNL1       -0.0304
      6 C          61.0649   94.3118    0.1613 C.2     1  UNL1       -0.0219
      7 C          59.9186   94.0536    1.0935 C.3     1  UNL1        0.0303
      8 C          59.4576   93.1362    2.6039 C.3     1  UNL1        0.0258
      9 C          59.2636   92.3163    3.8450 C.3     1  UNL1        0.0911
     10 CA         60.5725   88.3848   10.5172 C.ar    1  UNL1        0.0952
     11 C          61.7122   89.3561   10.4305 C.ar    1  UNL1        0.0203
     12 C          61.9062   90.1760    9.1894 C.ar    1  UNL1        0.0031
     13 C          60.9605   90.0245    8.0350 C.ar    1  UNL1        0.0189
     14 C          61.1544   90.8443    6.7940 C.ar    1  UNL1        0.0160
     15 C          60.2087   90.6928    5.6396 C.ar    1  UNL1        0.0479
     16 C          59.0690   89.7214    5.7263 C.ar    1  UNL1        0.0161
     17 C          58.8750   88.9015    6.9673 C.ar    1  UNL1        0.0204
     18 C          59.8208   89.0531    8.1217 C.ar    1  UNL1        0.0814
     19 N          59.6268   88.2333    9.3628 N.ar    1  UNL1       -0.2442
     20 O          61.1550   86.2956   11.9475 O.co2   1  UNL1       -0.5430
     21 C          60.3786   87.5649   11.7582 C.2     1  UNL1        0.0905
     22 OXT        59.4082   88.0144   12.8100 O.co2   1  UNL1       -0.5430
     23 C          61.2589   95.1316   -1.0797 C.ar    1  UNL1        0.0495
     24 C          60.2144   95.4232   -2.1160 C.ar    1  UNL1        0.1238
     25 N          60.8414   96.2756   -3.1792 N.ar    1  UNL1       -0.0773
     26 O          62.2734   96.5109   -2.7999 O.2     1  UNL1       -0.3578
     27 C          62.5316   95.8039   -1.5024 C.ar    1  UNL1        0.1535
     28 C          58.7925   94.9461   -2.0932 C.ar    1  UNL1        0.0420
     29 C          57.7743   95.6624   -1.2564 C.ar    1  UNL1        0.0600
     30 CL         58.1781   96.8559   -0.4425 Cl      1  UNL1       -0.0822
     31 C          56.3524   95.1853   -1.2337 C.ar    1  UNL1        0.0115
     32 C          55.9487   93.9918   -2.0477 C.ar    1  UNL1        0.0017
     33 C          56.9668   93.2755   -2.8845 C.ar    1  UNL1        0.0115
     34 C          58.3887   93.7526   -2.9072 C.ar    1  UNL1        0.0600
     35 CL         59.4069   93.0363   -3.7440 Cl      1  UNL1       -0.0822
     36 C          63.8335   95.7743   -0.7582 C.3     1  UNL1        0.0602
     37 C          65.0684   95.0385   -0.3295 C.3     1  UNL1        0.0081
     38 C          64.8539   96.4589    0.1021 C.3     1  UNL1        0.0081
@<TRIPOS>UNITY_ATOM_ATTR
20 1
charge -1
@<TRIPOS>BOND
     1    20    21   ar
     2    21    22   ar
     3    21    10    1
     4    10    11   ar
     5    11    12   ar
     6    12    13   ar
     7    13    14   ar
     8    14    15   ar
     9    15     1    1
    10     1     2    1
    11     2     3    1
    12     3     4    1
    13     4     5    1
    14     5     6    2
    15     6    23    1
    16    23    24   ar
    17    24    28    1
    18    28    29   ar
    19    29    30    1
    20    29    31   ar
    21    31    32   ar
    22    32    33   ar
    23    33    34   ar
    24    34    35    1
    25    24    25   ar
    26    25    26   ar
    27    26    27   ar
    28    27    36    1
    29    36    37    1
    30    37    38    1
    31     6     7    1
    32     4     8    1
    33     8     9    1
    34    15    16   ar
    35    16    17   ar
    36    17    18   ar
    37    18    19   ar
    38    19    10   ar
    39    18    13   ar
    40     9     1    1
    41     7     4    1
    42    27    23   ar
    43    38    36    1
    44    34    28   ar
@<TRIPOS>MOLECULE
*****
 38 44 0 0 0
SMALL
GASTEIGER

@<TRIPOS>ATOM
      1 N          60.7730   88.4673    8.4786 N.pl3   1  UNL1       -0.3075
      2 C          61.0334   87.0057    8.2640 C.3     1  UNL1        0.0911
      3 C          61.5455   86.1614    9.3932 C.3     1  UNL1        0.0258
      4 C          61.7971   86.7787   10.7369 C.3     1  UNL1        0.0256
      5 C          62.1628   85.3330   10.8992 C.2     1  UNL1       -0.0304
      6 C          62.5212   85.5848   12.3338 C.2     1  UNL1       -0.0219
      7 C          62.1556   87.0304   12.1716 C.3     1  UNL1        0.0303
      8 C          61.5367   88.2403   10.9515 C.3     1  UNL1        0.0258
      9 C          61.0247   89.0845    9.8223 C.3     1  UNL1        0.0911
     10 CA         59.6890   92.4925    3.0131 C.ar    1  UNL1        0.0952
     11 C          61.1651   92.2964    3.1934 C.ar    1  UNL1        0.0203
     12 C          61.6772   91.4522    4.3226 C.ar    1  UNL1        0.0031
     13 C          60.7131   90.8040    5.2714 C.ar    1  UNL1        0.0189
     14 C          61.2251   89.9597    6.4006 C.ar    1  UNL1        0.0160
     15 C          60.2610   89.3115    7.3494 C.ar    1  UNL1        0.0479
     16 C          58.7848   89.5076    7.1691 C.ar    1  UNL1        0.0161
     17 C          58.2728   90.3519    6.0399 C.ar    1  UNL1        0.0204
     18 C          59.2369   91.0001    5.0911 C.ar    1  UNL1        0.0814
     19 N          58.7249   91.8444    3.9619 N.ar    1  UNL1       -0.2442
     20 O          59.4733   94.8069    1.8524 O.co2   1  UNL1       -0.5430
     21 C          59.1770   93.3368    1.8839 C.2     1  UNL1        0.0905
     22 OXT        58.3686   92.7110    0.7863 O.co2   1  UNL1       -0.5430
     23 C          63.0333   84.7405   13.4630 C.ar    1  UNL1        0.0495
     24 C          63.4390   85.2348   14.8198 C.ar    1  UNL1        0.1238
     25 N          63.8859   84.0535   15.6290 N.ar    1  UNL1       -0.0773
     26 O          63.7565   82.8291   14.7722 O.2     1  UNL1       -0.3578
     27 C          63.2295   83.2536   13.4335 C.ar    1  UNL1        0.1535
     28 C          63.4039   86.6602   15.2858 C.ar    1  UNL1        0.0420
     29 C          62.8070   86.9987   16.6196 C.ar    1  UNL1        0.0600
     30 CL         62.2452   85.9119   17.4875 Cl      1  UNL1       -0.0822
     31 C          62.7720   88.4242   17.0854 C.ar    1  UNL1        0.0115
     32 C          63.3338   89.5109   16.2175 C.ar    1  UNL1        0.0017
     33 C          63.9307   89.1723   14.8837 C.ar    1  UNL1        0.0115
     34 C          63.9657   87.7469   14.4178 C.ar    1  UNL1        0.0600
     35 CL         64.5626   87.4083   13.0840 Cl      1  UNL1       -0.0822
     36 C          62.9481   82.3501   12.2698 C.3     1  UNL1        0.0602
     37 C          62.5282   81.0129   11.7351 C.3     1  UNL1        0.0081
     38 C          62.8807   82.1221   10.7888 C.3     1  UNL1        0.0081
@<TRIPOS>UNITY_ATOM_ATTR
20 1
charge -1
@<TRIPOS>BOND
     1    20    21   ar
     2    21    22   ar
     3    21    10    1
     4    10    11   ar
     5    11    12   ar
     6    12    13   ar
     7    13    14   ar
     8    14    15   ar
     9    15     1    1
    10     1     2    1
    11     2     3    1
    12     3     4    1
    13     4     5    1
    14     5     6    2
    15     6    23    1
    16    23    24   ar
    17    24    28    1
    18    28    29   ar
    19    29    30    1
    20    29    31   ar
    21    31    32   ar
    22    32    33   ar
    23    33    34   ar
    24    34    35    1
    25    24    25   ar
    26    25    26   ar
    27    26    27   ar
    28    27    36    1
    29    36    37    1
    30    37    38    1
    31     6     7    1
    32     4     8    1
    33     8     9    1
    34    15    16   ar
    35    16    17   ar
    36    17    18   ar
    37    18    19   ar
    38    19    10   ar
    39    18    13   ar
    40     9     1    1
    41     7     4    1
    42    27    23   ar
    43    38    36    1
    44    34    28   ar
