@<TRIPOS>MOLECULE
*****
 25 27 0 0 0
SMALL
GASTEIGER

@<TRIPOS>ATOM
      1 C          65.1293   92.6693   11.3732 C.ar    1  UNL1        0.0208
      2 C          65.3978   92.5221   12.8416 C.ar    1  UNL1        0.1003
      3 N          64.6687   91.4797   13.6366 N.ar    1  UNL1       -0.2296
      4 C          63.6712   90.5845   12.9632 C.ar    1  UNL1        0.1253
      5 N          62.9421   89.5422   13.7581 N.pl3   1  UNL1       -0.3426
      6 C          63.4027   90.7317   11.4948 C.ar    1  UNL1        0.0312
      7 C          64.1317   91.7741   10.6998 C.ar    1  UNL1        0.0044
      8 H          63.1184   89.4456   14.7219 H       1  UNL1        0.1437
      9 H          62.2874   88.9547   13.3161 H       1  UNL1        0.1437
     10 N          68.0455   96.8387    8.1933 N.pl3   1  UNL1       -0.3426
     11 C          67.3164   95.7963    8.9883 C.ar    1  UNL1        0.1254
     12 C          67.7758   94.3689    8.9531 C.ar    1  UNL1        0.0339
     13 C          67.0468   93.3265    9.7481 C.ar    1  UNL1        0.0044
     14 C          65.8583   93.7116   10.5783 C.ar    1  UNL1        0.0208
     15 C          65.3989   95.1391   10.6134 C.ar    1  UNL1        0.1003
     16 N          66.1279   96.1814    9.8185 N.ar    1  UNL1       -0.2296
     17 H          68.8255   96.5859    7.6485 H       1  UNL1        0.1437
     18 H          67.7439   97.7756    8.2164 H       1  UNL1        0.1437
     19 C          62.4051   89.8365   10.8213 C.ar    1  UNL1        0.0027
     20 C          62.7427   88.3981   10.5627 C.ar    1  UNL1        0.0010
     21 C          61.7452   87.5029    9.8893 C.ar    1  UNL1        0.0114
     22 C          60.4100   88.0462    9.4744 C.ar    1  UNL1        0.0577
     23 CL         59.4124   87.1510    8.8009 Cl      1  UNL1       -0.0822
     24 C          60.0723   89.4846    9.7329 C.ar    1  UNL1        0.0114
     25 C          61.0699   90.3798   10.4064 C.ar    1  UNL1        0.0010
@<TRIPOS>BOND
     1    10    11    1
     2    11    12   ar
     3    12    13   ar
     4    13    14   ar
     5    14     1    1
     6     1     2   ar
     7     2     3   ar
     8     3     4   ar
     9     4     5    1
    10     4     6   ar
    11     6    19    1
    12    19    20   ar
    13    20    21   ar
    14    21    22   ar
    15    22    23    1
    16    22    24   ar
    17    24    25   ar
    18     6     7   ar
    19    14    15   ar
    20    15    16   ar
    21    16    11   ar
    22     7     1   ar
    23    25    19   ar
    24    10    17    1
    25    10    18    1
    26     5     8    1
    27     5     9    1
@<TRIPOS>MOLECULE
*****
 25 27 0 0 0
SMALL
GASTEIGER

@<TRIPOS>ATOM
      1 C          63.6402   86.8646   15.4080 C.ar    1  UNL1        0.0208
      2 C          63.1327   87.2821   16.7564 C.ar    1  UNL1        0.1003
      3 N          63.1020   88.7346   17.1295 N.ar    1  UNL1       -0.2296
      4 C          63.5787   89.7697   16.1542 C.ar    1  UNL1        0.1253
      5 N          63.5480   91.2222   16.5273 N.pl3   1  UNL1       -0.3426
      6 C          64.0862   89.3523   14.8058 C.ar    1  UNL1        0.0312
      7 C          64.1169   87.8997   14.4327 C.ar    1  UNL1        0.0044
      8 H          63.2150   91.4962   17.4123 H       1  UNL1        0.1437
      9 H          63.8609   91.9016   15.8871 H       1  UNL1        0.1437
     10 N          63.7630   81.0545   13.9156 N.pl3   1  UNL1       -0.3426
     11 C          63.7323   82.5070   14.2887 C.ar    1  UNL1        0.1254
     12 C          64.5971   83.4884   13.5546 C.ar    1  UNL1        0.0339
     13 C          64.5664   84.9409   13.9277 C.ar    1  UNL1        0.0044
     14 C          63.6709   85.4121   15.0349 C.ar    1  UNL1        0.0208
     15 C          62.8061   84.4307   15.7691 C.ar    1  UNL1        0.1003
     16 N          62.8368   82.9782   15.3960 N.ar    1  UNL1       -0.2296
     17 H          64.3507   80.7453   13.1889 H       1  UNL1        0.1437
     18 H          63.1954   80.4104   14.3975 H       1  UNL1        0.1437
     19 C          64.5630   90.3874   13.8304 C.ar    1  UNL1        0.0027
     20 C          63.7961   90.6354   12.5654 C.ar    1  UNL1        0.0010
     21 C          64.2728   91.6705   11.5900 C.ar    1  UNL1        0.0114
     22 C          65.5165   92.4576   11.8797 C.ar    1  UNL1        0.0577
     23 CL         65.9932   93.4926   10.9043 Cl      1  UNL1       -0.0822
     24 C          66.2834   92.2095   13.1447 C.ar    1  UNL1        0.0114
     25 C          65.8066   91.1744   14.1201 C.ar    1  UNL1        0.0010
@<TRIPOS>BOND
     1    10    11    1
     2    11    12   ar
     3    12    13   ar
     4    13    14   ar
     5    14     1    1
     6     1     2   ar
     7     2     3   ar
     8     3     4   ar
     9     4     5    1
    10     4     6   ar
    11     6    19    1
    12    19    20   ar
    13    20    21   ar
    14    21    22   ar
    15    22    23    1
    16    22    24   ar
    17    24    25   ar
    18     6     7   ar
    19    14    15   ar
    20    15    16   ar
    21    16    11   ar
    22     7     1   ar
    23    25    19   ar
    24    10    17    1
    25    10    18    1
    26     5     8    1
    27     5     9    1
@<TRIPOS>MOLECULE
*****
 25 27 0 0 0
SMALL
GASTEIGER

@<TRIPOS>ATOM
      1 C          64.5961   90.7375   14.3209 C.ar    1  UNL1        0.0208
      2 C          63.9642   91.0866   15.6357 C.ar    1  UNL1        0.1003
      3 N          63.3815   90.0064   16.4981 N.ar    1  UNL1       -0.2296
      4 C          63.4306   88.5772   16.0456 C.ar    1  UNL1        0.1253
      5 N          62.8478   87.4970   16.9079 N.pl3   1  UNL1       -0.3426
      6 C          64.0624   88.2281   14.7307 C.ar    1  UNL1        0.0312
      7 C          64.6451   89.3083   13.8684 C.ar    1  UNL1        0.0044
      8 H          62.4331   87.7261   17.7709 H       1  UNL1        0.1437
      9 H          62.8800   86.5589   16.6109 H       1  UNL1        0.1437
     10 N          66.9270   95.0582   10.8715 N.pl3   1  UNL1       -0.3426
     11 C          66.3443   93.9781   11.7338 C.ar    1  UNL1        0.1254
     12 C          65.3917   92.9803   11.1449 C.ar    1  UNL1        0.0339
     13 C          64.8089   91.9001   12.0072 C.ar    1  UNL1        0.0044
     14 C          65.1788   91.8177   13.4585 C.ar    1  UNL1        0.0208
     15 C          66.1314   92.8155   14.0475 C.ar    1  UNL1        0.1003
     16 N          66.7142   93.8956   13.1852 N.ar    1  UNL1       -0.2296
     17 H          66.6843   95.1123    9.9189 H       1  UNL1        0.1437
     18 H          67.5523   95.7131   11.2581 H       1  UNL1        0.1437
     19 C          64.1115   86.7988   14.2781 C.ar    1  UNL1        0.0027
     20 C          63.2444   86.3414   13.1428 C.ar    1  UNL1        0.0010
     21 C          63.2934   84.9122   12.6902 C.ar    1  UNL1        0.0114
     22 C          64.2097   83.9403   13.3729 C.ar    1  UNL1        0.0577
     23 CL         64.2587   82.5111   12.9203 Cl      1  UNL1       -0.0822
     24 C          65.0768   84.3977   14.5082 C.ar    1  UNL1        0.0114
     25 C          65.0277   85.8270   14.9608 C.ar    1  UNL1        0.0010
@<TRIPOS>BOND
     1    10    11    1
     2    11    12   ar
     3    12    13   ar
     4    13    14   ar
     5    14     1    1
     6     1     2   ar
     7     2     3   ar
     8     3     4   ar
     9     4     5    1
    10     4     6   ar
    11     6    19    1
    12    19    20   ar
    13    20    21   ar
    14    21    22   ar
    15    22    23    1
    16    22    24   ar
    17    24    25   ar
    18     6     7   ar
    19    14    15   ar
    20    15    16   ar
    21    16    11   ar
    22     7     1   ar
    23    25    19   ar
    24    10    17    1
    25    10    18    1
    26     5     8    1
    27     5     9    1
@<TRIPOS>MOLECULE
*****
 25 27 0 0 0
SMALL
GASTEIGER

@<TRIPOS>ATOM
      1 C          61.8639   87.1107   10.9177 C.ar    1  UNL1        0.0208
      2 C          62.6962   88.0375   11.7534 C.ar    1  UNL1        0.1003
      3 N          63.5027   87.4964   12.8965 N.ar    1  UNL1       -0.2296
      4 C          63.4770   86.0285   13.2040 C.ar    1  UNL1        0.1253
      5 N          64.2835   85.4874   14.3471 N.pl3   1  UNL1       -0.3426
      6 C          62.6447   85.1017   12.3683 C.ar    1  UNL1        0.0312
      7 C          61.8382   85.6428   11.2252 C.ar    1  UNL1        0.0044
      8 H          64.8297   86.0957   14.8956 H       1  UNL1        0.1437
      9 H          64.2666   84.5239   14.5489 H       1  UNL1        0.1437
     10 N          58.6378   89.2751    6.3452 N.pl3   1  UNL1       -0.3426
     11 C          59.4444   88.7340    7.4883 C.ar    1  UNL1        0.1254
     12 C          59.5071   87.2546    7.7279 C.ar    1  UNL1        0.0339
     13 C          60.3137   86.7135    8.8710 C.ar    1  UNL1        0.0044
     14 C          61.0574   87.6518    9.7746 C.ar    1  UNL1        0.0208
     15 C          60.9946   89.1312    9.5350 C.ar    1  UNL1        0.1003
     16 N          60.1881   89.6723    8.3919 N.ar    1  UNL1       -0.2296
     17 H          58.1497   88.6593    5.7522 H       1  UNL1        0.1437
     18 H          58.5966   90.2461    6.1880 H       1  UNL1        0.1437
     19 C          62.6190   83.6337   12.6757 C.ar    1  UNL1        0.0027
     20 C          62.1656   83.1577   14.0240 C.ar    1  UNL1        0.0010
     21 C          62.1398   81.6898   14.3314 C.ar    1  UNL1        0.0114
     22 C          62.5675   80.6978   13.2906 C.ar    1  UNL1        0.0577
     23 CL         62.5417   79.2299   13.5981 Cl      1  UNL1       -0.0822
     24 C          63.0208   81.1739   11.9423 C.ar    1  UNL1        0.0114
     25 C          63.0466   82.6419   11.6349 C.ar    1  UNL1        0.0010
@<TRIPOS>BOND
     1    10    11    1
     2    11    12   ar
     3    12    13   ar
     4    13    14   ar
     5    14     1    1
     6     1     2   ar
     7     2     3   ar
     8     3     4   ar
     9     4     5    1
    10     4     6   ar
    11     6    19    1
    12    19    20   ar
    13    20    21   ar
    14    21    22   ar
    15    22    23    1
    16    22    24   ar
    17    24    25   ar
    18     6     7   ar
    19    14    15   ar
    20    15    16   ar
    21    16    11   ar
    22     7     1   ar
    23    25    19   ar
    24    10    17    1
    25    10    18    1
    26     5     8    1
    27     5     9    1
@<TRIPOS>MOLECULE
*****
 25 27 0 0 0
SMALL
GASTEIGER

@<TRIPOS>ATOM
      1 C          62.6605   90.0143   11.2589 C.ar    1  UNL1        0.0208
      2 C          61.2889   90.4539   10.8400 C.ar    1  UNL1        0.1003
      3 N          60.2881   89.4410   10.3683 N.ar    1  UNL1       -0.2296
      4 C          60.6589   87.9885   10.3156 C.ar    1  UNL1        0.1253
      5 N          59.6582   86.9756    9.8439 N.pl3   1  UNL1       -0.3426
      6 C          62.0305   87.5490   10.7345 C.ar    1  UNL1        0.0312
      7 C          63.0313   88.5619   11.2062 C.ar    1  UNL1        0.0044
      8 H          58.7579   87.2641    9.5690 H       1  UNL1        0.1437
      9 H          59.9015   86.0223    9.8093 H       1  UNL1        0.1437
     10 N          66.6636   94.0660   13.1456 N.pl3   1  UNL1       -0.3426
     11 C          65.6628   93.0531   12.6739 C.ar    1  UNL1        0.1254
     12 C          65.3391   92.9422   11.2135 C.ar    1  UNL1        0.0339
     13 C          64.3384   91.9293   10.7418 C.ar    1  UNL1        0.0044
     14 C          63.6612   91.0272   11.7306 C.ar    1  UNL1        0.0208
     15 C          63.9849   91.1381   13.1910 C.ar    1  UNL1        0.1003
     16 N          64.9857   92.1510   13.6627 N.ar    1  UNL1       -0.2296
     17 H          67.1080   94.6580   12.4966 H       1  UNL1        0.1437
     18 H          66.8760   94.1387   14.1041 H       1  UNL1        0.1437
     19 C          62.4014   86.0964   10.6818 C.ar    1  UNL1        0.0027
     20 C          62.8678   85.4878    9.3926 C.ar    1  UNL1        0.0010
     21 C          63.2387   84.0354    9.3398 C.ar    1  UNL1        0.0114
     22 C          63.1431   83.1915   10.5763 C.ar    1  UNL1        0.0577
     23 CL         63.5139   81.7390   10.5235 Cl      1  UNL1       -0.0822
     24 C          62.6767   83.8001   11.8655 C.ar    1  UNL1        0.0114
     25 C          62.3058   85.2526   11.9182 C.ar    1  UNL1        0.0010
@<TRIPOS>BOND
     1    10    11    1
     2    11    12   ar
     3    12    13   ar
     4    13    14   ar
     5    14     1    1
     6     1     2   ar
     7     2     3   ar
     8     3     4   ar
     9     4     5    1
    10     4     6   ar
    11     6    19    1
    12    19    20   ar
    13    20    21   ar
    14    21    22   ar
    15    22    23    1
    16    22    24   ar
    17    24    25   ar
    18     6     7   ar
    19    14    15   ar
    20    15    16   ar
    21    16    11   ar
    22     7     1   ar
    23    25    19   ar
    24    10    17    1
    25    10    18    1
    26     5     8    1
    27     5     9    1
@<TRIPOS>MOLECULE
*****
 25 27 0 0 0
SMALL
GASTEIGER

@<TRIPOS>ATOM
      1 C          63.1230   89.0652   12.0601 C.ar    1  UNL1        0.0208
      2 C          62.1894   89.5120   10.9745 C.ar    1  UNL1        0.1003
      3 N          61.4130   88.4975   10.1884 N.ar    1  UNL1       -0.2296
      4 C          61.5702   87.0362   10.4879 C.ar    1  UNL1        0.1253
      5 N          60.7938   86.0217    9.7018 N.pl3   1  UNL1       -0.3426
      6 C          62.5038   86.5894   11.5735 C.ar    1  UNL1        0.0312
      7 C          63.2802   87.6038   12.3596 C.ar    1  UNL1        0.0044
      8 H          60.1810   86.3150    8.9892 H       1  UNL1        0.1437
      9 H          60.8970   85.0626    9.8983 H       1  UNL1        0.1437
     10 N          66.2287   93.1231   15.2046 N.pl3   1  UNL1       -0.3426
     11 C          65.4523   92.1086   14.4185 C.ar    1  UNL1        0.1254
     12 C          65.1225   90.7789   15.0292 C.ar    1  UNL1        0.0339
     13 C          64.3460   89.7644   14.2431 C.ar    1  UNL1        0.0044
     14 C          63.8995   90.0797   12.8462 C.ar    1  UNL1        0.0208
     15 C          64.2293   91.4094   12.2356 C.ar    1  UNL1        0.1003
     16 N          65.0057   92.4239   13.0217 N.ar    1  UNL1       -0.2296
     17 H          66.5218   92.9162   16.1214 H       1  UNL1        0.1437
     18 H          66.4452   93.9959   14.8038 H       1  UNL1        0.1437
     19 C          62.6611   85.1279   11.8731 C.ar    1  UNL1        0.0027
     20 C          63.0751   84.1800   10.7868 C.ar    1  UNL1        0.0010
     21 C          63.2324   82.7187   11.0862 C.ar    1  UNL1        0.0114
     22 C          62.9756   82.2052   12.4721 C.ar    1  UNL1        0.0577
     23 CL         63.1328   80.7439   12.7716 Cl      1  UNL1       -0.0822
     24 C          62.5616   83.1531   13.5584 C.ar    1  UNL1        0.0114
     25 C          62.4043   84.6145   13.2588 C.ar    1  UNL1        0.0010
@<TRIPOS>BOND
     1    10    11    1
     2    11    12   ar
     3    12    13   ar
     4    13    14   ar
     5    14     1    1
     6     1     2   ar
     7     2     3   ar
     8     3     4   ar
     9     4     5    1
    10     4     6   ar
    11     6    19    1
    12    19    20   ar
    13    20    21   ar
    14    21    22   ar
    15    22    23    1
    16    22    24   ar
    17    24    25   ar
    18     6     7   ar
    19    14    15   ar
    20    15    16   ar
    21    16    11   ar
    22     7     1   ar
    23    25    19   ar
    24    10    17    1
    25    10    18    1
    26     5     8    1
    27     5     9    1
@<TRIPOS>MOLECULE
*****
 25 27 0 0 0
SMALL
GASTEIGER

@<TRIPOS>ATOM
      1 C          62.1299   86.3830   11.6503 C.ar    1  UNL1        0.0208
      2 C          60.8792   86.5243   10.8344 C.ar    1  UNL1        0.1003
      3 N          60.4820   87.8672   10.2970 N.ar    1  UNL1       -0.2296
      4 C          61.3355   89.0688   10.5755 C.ar    1  UNL1        0.1253
      5 N          60.9384   90.4117   10.0381 N.pl3   1  UNL1       -0.3426
      6 C          62.5863   88.9275   11.3913 C.ar    1  UNL1        0.0312
      7 C          62.9835   87.5846   11.9287 C.ar    1  UNL1        0.0044
      8 H          60.1174   90.5045    9.5026 H       1  UNL1        0.1437
      9 H          61.4986   91.2004   10.2208 H       1  UNL1        0.1437
     10 N          63.7187   81.0113   13.7998 N.pl3   1  UNL1       -0.3426
     11 C          63.3215   82.3542   13.2624 C.ar    1  UNL1        0.1254
     12 C          63.1192   82.5421   11.7881 C.ar    1  UNL1        0.0339
     13 C          62.7220   83.8850   11.2507 C.ar    1  UNL1        0.0044
     14 C          62.5271   85.0400   12.1876 C.ar    1  UNL1        0.0208
     15 C          62.7294   84.8521   13.6620 C.ar    1  UNL1        0.1003
     16 N          63.1266   83.5092   14.1994 N.ar    1  UNL1       -0.2296
     17 H          63.8466   80.2532   13.1849 H       1  UNL1        0.1437
     18 H          63.8515   80.8879   14.7675 H       1  UNL1        0.1437
     19 C          63.4399   90.1291   11.6698 C.ar    1  UNL1        0.0027
     20 C          63.9482   90.3825   13.0581 C.ar    1  UNL1        0.0010
     21 C          64.8018   91.5841   13.3366 C.ar    1  UNL1        0.0114
     22 C          65.1472   92.5323   12.2267 C.ar    1  UNL1        0.0577
     23 CL         66.0007   93.7338   12.5052 Cl      1  UNL1       -0.0822
     24 C          64.6389   92.2789   10.8384 C.ar    1  UNL1        0.0114
     25 C          63.7852   91.0773   10.5599 C.ar    1  UNL1        0.0010
@<TRIPOS>BOND
     1    10    11    1
     2    11    12   ar
     3    12    13   ar
     4    13    14   ar
     5    14     1    1
     6     1     2   ar
     7     2     3   ar
     8     3     4   ar
     9     4     5    1
    10     4     6   ar
    11     6    19    1
    12    19    20   ar
    13    20    21   ar
    14    21    22   ar
    15    22    23    1
    16    22    24   ar
    17    24    25   ar
    18     6     7   ar
    19    14    15   ar
    20    15    16   ar
    21    16    11   ar
    22     7     1   ar
    23    25    19   ar
    24    10    17    1
    25    10    18    1
    26     5     8    1
    27     5     9    1
@<TRIPOS>MOLECULE
*****
 25 27 0 0 0
SMALL
GASTEIGER

@<TRIPOS>ATOM
      1 C          62.7635   85.0991   12.5433 C.ar    1  UNL1        0.0208
      2 C          63.5803   86.0131   13.4077 C.ar    1  UNL1        0.1003
      3 N          63.6187   87.4842   13.1174 N.ar    1  UNL1       -0.2296
      4 C          62.8402   88.0413   11.9626 C.ar    1  UNL1        0.1253
      5 N          62.8785   89.5125   11.6723 N.pl3   1  UNL1       -0.3426
      6 C          62.0234   87.1273   11.0982 C.ar    1  UNL1        0.0312
      7 C          61.9850   85.6562   11.3885 C.ar    1  UNL1        0.0044
      8 H          63.4147   90.1124   12.2396 H       1  UNL1        0.1437
      9 H          62.3676   89.8781   10.9143 H       1  UNL1        0.1437
     10 N          62.6101   79.2145   13.7046 N.pl3   1  UNL1       -0.3426
     11 C          62.6485   80.6857   13.4143 C.ar    1  UNL1        0.1254
     12 C          62.8581   81.1677   12.0094 C.ar    1  UNL1        0.0339
     13 C          62.8965   82.6388   11.7191 C.ar    1  UNL1        0.0044
     14 C          62.7252   83.6279   12.8336 C.ar    1  UNL1        0.0208
     15 C          62.5155   83.1459   14.2385 C.ar    1  UNL1        0.1003
     16 N          62.4771   81.6748   14.5288 N.ar    1  UNL1       -0.2296
     17 H          62.7226   78.5653   12.9731 H       1  UNL1        0.1437
     18 H          62.4725   78.8982   14.6267 H       1  UNL1        0.1437
     19 C          61.2448   87.6844    9.9433 C.ar    1  UNL1        0.0027
     20 C          61.0754   89.1678    9.7990 C.ar    1  UNL1        0.0010
     21 C          60.2969   89.7249    8.6442 C.ar    1  UNL1        0.0114
     22 C          59.6878   88.7986    7.6337 C.ar    1  UNL1        0.0577
     23 CL         58.9093   89.3557    6.4789 Cl      1  UNL1       -0.0822
     24 C          59.8573   87.3152    7.7780 C.ar    1  UNL1        0.0114
     25 C          60.6358   86.7581    8.9329 C.ar    1  UNL1        0.0010
@<TRIPOS>BOND
     1    10    11    1
     2    11    12   ar
     3    12    13   ar
     4    13    14   ar
     5    14     1    1
     6     1     2   ar
     7     2     3   ar
     8     3     4   ar
     9     4     5    1
    10     4     6   ar
    11     6    19    1
    12    19    20   ar
    13    20    21   ar
    14    21    22   ar
    15    22    23    1
    16    22    24   ar
    17    24    25   ar
    18     6     7   ar
    19    14    15   ar
    20    15    16   ar
    21    16    11   ar
    22     7     1   ar
    23    25    19   ar
    24    10    17    1
    25    10    18    1
    26     5     8    1
    27     5     9    1
@<TRIPOS>MOLECULE
*****
 25 27 0 0 0
SMALL
GASTEIGER

@<TRIPOS>ATOM
      1 C          62.5821   86.7052   12.0827 C.ar    1  UNL1        0.0208
      2 C          61.3953   87.0387   11.2281 C.ar    1  UNL1        0.1003
      3 N          61.0826   88.4696   10.9044 N.ar    1  UNL1       -0.2296
      4 C          61.9566   89.5670   11.4351 C.ar    1  UNL1        0.1253
      5 N          61.6439   90.9978   11.1114 N.pl3   1  UNL1       -0.3426
      6 C          63.1434   89.2335   12.2897 C.ar    1  UNL1        0.0312
      7 C          63.4561   87.8026   12.6135 C.ar    1  UNL1        0.0044
      8 H          60.8649   91.2167   10.5505 H       1  UNL1        0.1437
      9 H          62.2175   91.7181   11.4598 H       1  UNL1        0.1437
     10 N          63.8331   80.9818   13.3777 N.pl3   1  UNL1       -0.3426
     11 C          63.5204   82.4127   13.0540 C.ar    1  UNL1        0.1254
     12 C          63.9199   83.5015   14.0051 C.ar    1  UNL1        0.0339
     13 C          63.6072   84.9323   13.6814 C.ar    1  UNL1        0.0044
     14 C          62.8949   85.2744   12.4064 C.ar    1  UNL1        0.0208
     15 C          62.4953   84.1856   11.4552 C.ar    1  UNL1        0.1003
     16 N          62.8081   82.7547   11.7790 N.ar    1  UNL1       -0.2296
     17 H          64.3007   80.7573   14.2145 H       1  UNL1        0.1437
     18 H          63.5709   80.2672   12.7534 H       1  UNL1        0.1437
     19 C          64.0175   90.3309   12.8205 C.ar    1  UNL1        0.0027
     20 C          64.4287   91.4617   11.9249 C.ar    1  UNL1        0.0010
     21 C          65.3028   92.5591   12.4556 C.ar    1  UNL1        0.0114
     22 C          65.7656   92.5257   13.8821 C.ar    1  UNL1        0.0577
     23 CL         66.6397   93.6231   14.4129 Cl      1  UNL1       -0.0822
     24 C          65.3544   91.3949   14.7778 C.ar    1  UNL1        0.0114
     25 C          64.4803   90.2975   14.2469 C.ar    1  UNL1        0.0010
@<TRIPOS>BOND
     1    10    11    1
     2    11    12   ar
     3    12    13   ar
     4    13    14   ar
     5    14     1    1
     6     1     2   ar
     7     2     3   ar
     8     3     4   ar
     9     4     5    1
    10     4     6   ar
    11     6    19    1
    12    19    20   ar
    13    20    21   ar
    14    21    22   ar
    15    22    23    1
    16    22    24   ar
    17    24    25   ar
    18     6     7   ar
    19    14    15   ar
    20    15    16   ar
    21    16    11   ar
    22     7     1   ar
    23    25    19   ar
    24    10    17    1
    25    10    18    1
    26     5     8    1
    27     5     9    1
