@<TRIPOS>MOLECULE
*****
 34 39 0 0 0
SMALL
GASTEIGER

@<TRIPOS>ATOM
      1 C          63.9147   88.3071   15.1511 C.ar    1  UNL1        0.0845
      2 C          63.4104   88.1633   16.5564 C.ar    1  UNL1        0.0399
      3 C          62.8506   86.8518   17.0218 C.ar    1  UNL1        0.1037
      4 N          62.7951   85.6841   16.0818 N.ar    1  UNL1       -0.2095
      5 N          62.3014   84.2785   16.2555 N.ar    1  UNL1       -0.1490
      6 C          62.5007   83.5535   14.9576 C.ar    1  UNL1        0.1486
      7 N          62.1454   82.1221   14.6836 N.pl3   1  UNL1       -0.3412
      8 C          63.1175   84.5112   13.9817 C.ar    1  UNL1        0.0717
      9 C          63.2994   85.8280   14.6765 C.ar    1  UNL1        0.1665
     10 N          63.8593   87.1395   14.2112 N.ar    1  UNL1       -0.2264
     11 H          61.7422   81.5707   15.3924 H       1  UNL1        0.1438
     12 H          62.3155   81.7342   13.7948 H       1  UNL1        0.1438
     13 C          66.3874   92.7613   16.1739 C.3     1  UNL1        0.0312
     14 C          65.7109   91.8458   15.1972 C.ar    1  UNL1       -0.0177
     15 C          65.1511   90.5343   15.6625 C.ar    1  UNL1       -0.0026
     16 C          64.4745   89.6187   14.6857 C.ar    1  UNL1        0.0172
     17 C          64.3578   90.0147   13.2437 C.ar    1  UNL1       -0.0010
     18 C          64.9176   91.3262   12.7784 C.ar    1  UNL1        0.0018
     19 C          65.5941   92.2417   13.7551 C.ar    1  UNL1        0.0473
     20 C          66.0465   93.4622   13.0096 C.2     1  UNL1        0.2486
     21 O          66.7689   94.6376   13.5983 O.2     1  UNL1       -0.2699
     22 N          65.6495   93.3010   11.5721 N.am    1  UNL1       -0.2736
     23 C          64.9518   91.9808   11.4292 C.3     1  UNL1        0.1205
     24 C          65.9053   94.2868   10.4709 C.3     1  UNL1        0.0759
     25 C          65.0859   95.5400   10.3809 C.3     1  UNL1        0.0215
     26 C          66.9804   94.0194    9.4597 C.3     1  UNL1        0.0182
     27 C          67.6948   94.3908    8.1941 C.3     1  UNL1        0.0017
     28 C          68.1283   93.1850    8.9738 C.3     1  UNL1        0.0017
     29 C          63.4873   84.2056   12.5605 C.ar    1  UNL1        0.0453
     30 C          64.5025   83.1969   12.1110 C.ar    1  UNL1        0.1218
     31 N          64.5496   83.2229   10.6119 N.ar    1  UNL1       -0.1676
     32 N          63.5636   84.2477   10.1350 N.ar    1  UNL1       -0.2473
     33 C          63.2833   84.6029    8.7048 C.3     1  UNL1        0.1538
     34 C          62.9071   84.8551   11.3393 C.ar    1  UNL1        0.0969
@<TRIPOS>BOND
     1    13    14    1
     2    14    15   ar
     3    15    16   ar
     4    16     1    1
     5     1     2   ar
     6     2     3   ar
     7     3     4   ar
     8     4     5   ar
     9     5     6   ar
    10     6     7    1
    11     6     8   ar
    12     8    29    1
    13    29    30   ar
    14    30    31   ar
    15    31    32   ar
    16    32    33    1
    17    32    34   ar
    18     8     9   ar
    19     9    10   ar
    20    16    17   ar
    21    17    18   ar
    22    18    19   ar
    23    19    20    1
    24    20    21    2
    25    20    22   am
    26    22    24    1
    27    24    25    1
    28    24    26    1
    29    26    27    1
    30    27    28    1
    31    22    23    1
    32    19    14   ar
    33    28    26    1
    34    10     1   ar
    35    23    18    1
    36     9     4   ar
    37    34    29   ar
    38     7    11    1
    39     7    12    1
@<TRIPOS>MOLECULE
*****
 34 39 0 0 0
SMALL
GASTEIGER

@<TRIPOS>ATOM
      1 C          64.0964   89.4236   13.7969 C.ar    1  UNL1        0.0845
      2 C          63.7236   89.6138   15.2373 C.ar    1  UNL1        0.0399
      3 C          64.2112   90.8190   15.9854 C.ar    1  UNL1        0.1037
      4 N          65.0718   91.8340   15.2932 N.ar    1  UNL1       -0.2095
      5 N          65.6969   93.1118   15.7689 N.ar    1  UNL1       -0.1490
      6 C          66.4561   93.7114   14.6225 C.ar    1  UNL1        0.1486
      7 N          67.2345   94.9932   14.6548 N.pl3   1  UNL1       -0.3412
      8 C          66.3002   92.8040   13.4383 C.ar    1  UNL1        0.0717
      9 C          65.4447   91.6438   13.8527 C.ar    1  UNL1        0.1665
     10 N          64.9570   90.4386   13.1046 N.ar    1  UNL1       -0.2264
     11 H          67.2780   95.5219   15.4841 H       1  UNL1        0.1438
     12 H          67.7018   95.3057   13.8466 H       1  UNL1        0.1438
     13 C          61.5768   87.3538    9.7513 C.3     1  UNL1        0.0312
     14 C          62.3489   87.1835   11.0260 C.ar    1  UNL1       -0.0177
     15 C          62.8366   88.3886   11.7741 C.ar    1  UNL1       -0.0026
     16 C          63.6087   88.2184   13.0488 C.ar    1  UNL1        0.0172
     17 C          63.8931   86.8430   13.5754 C.ar    1  UNL1       -0.0010
     18 C          63.4054   85.6378   12.8272 C.ar    1  UNL1        0.0018
     19 C          62.6333   85.8081   11.5525 C.ar    1  UNL1        0.0473
     20 C          62.2831   84.4437   11.0370 C.2     1  UNL1        0.2486
     21 O          61.5125   84.1452    9.7852 O.2     1  UNL1       -0.2699
     22 N          62.8387   83.4302   11.9931 N.am    1  UNL1       -0.2736
     23 C          63.5323   84.1682   13.0995 C.3     1  UNL1        0.1205
     24 C          62.7213   81.9403   11.8651 C.3     1  UNL1        0.0759
     25 C          63.2175   81.2523   10.6281 C.3     1  UNL1        0.0215
     26 C          62.1077   81.1383   12.9743 C.3     1  UNL1        0.0182
     27 C          62.0197   79.8644   13.7613 C.3     1  UNL1        0.0017
     28 C          61.1329   81.0232   14.1086 C.3     1  UNL1        0.0017
     29 C          66.8953   93.0193   12.0783 C.ar    1  UNL1        0.0453
     30 C          67.9213   92.1475   11.4169 C.ar    1  UNL1        0.1218
     31 N          68.2291   92.7335   10.0708 N.ar    1  UNL1       -0.1676
     32 N          67.3935   93.9674    9.9004 N.ar    1  UNL1       -0.2473
     33 C          67.3838   94.8668    8.7000 C.3     1  UNL1        0.1538
     34 C          66.5692   94.1440   11.1411 C.ar    1  UNL1        0.0969
@<TRIPOS>BOND
     1    13    14    1
     2    14    15   ar
     3    15    16   ar
     4    16     1    1
     5     1     2   ar
     6     2     3   ar
     7     3     4   ar
     8     4     5   ar
     9     5     6   ar
    10     6     7    1
    11     6     8   ar
    12     8    29    1
    13    29    30   ar
    14    30    31   ar
    15    31    32   ar
    16    32    33    1
    17    32    34   ar
    18     8     9   ar
    19     9    10   ar
    20    16    17   ar
    21    17    18   ar
    22    18    19   ar
    23    19    20    1
    24    20    21    2
    25    20    22   am
    26    22    24    1
    27    24    25    1
    28    24    26    1
    29    26    27    1
    30    27    28    1
    31    22    23    1
    32    19    14   ar
    33    28    26    1
    34    10     1   ar
    35    23    18    1
    36     9     4   ar
    37    34    29   ar
    38     7    11    1
    39     7    12    1
@<TRIPOS>MOLECULE
*****
 34 39 0 0 0
SMALL
GASTEIGER

@<TRIPOS>ATOM
      1 C          63.9052   89.9740   13.3057 C.ar    1  UNL1        0.0845
      2 C          63.8689   89.5854   14.7540 C.ar    1  UNL1        0.0399
      3 C          64.6660   90.3626   15.7593 C.ar    1  UNL1        0.1037
      4 N          65.4995   91.5284   15.3162 N.ar    1  UNL1       -0.2095
      5 N          66.3836   92.4751   16.0724 N.ar    1  UNL1       -0.1490
      6 C          66.9663   93.4489   15.0915 C.ar    1  UNL1        0.1486
      7 N          67.9077   94.5707   15.4161 N.pl3   1  UNL1       -0.3412
      8 C          66.4423   93.1039   13.7290 C.ar    1  UNL1        0.0717
      9 C          65.5358   91.9170   13.8679 C.ar    1  UNL1        0.1665
     10 N          64.7386   91.1398   12.8626 N.ar    1  UNL1       -0.2264
     11 H          68.1960   94.7179   16.3459 H       1  UNL1        0.1438
     12 H          68.2373   95.1597   14.6994 H       1  UNL1        0.1438
     13 C          62.3537   85.4202   11.3420 C.3     1  UNL1        0.0312
     14 C          62.3323   86.9199   11.3186 C.ar    1  UNL1       -0.0177
     15 C          63.1294   87.6971   12.3238 C.ar    1  UNL1       -0.0026
     16 C          63.1080   89.1968   12.3004 C.ar    1  UNL1        0.0172
     17 C          62.2895   89.9192   11.2718 C.ar    1  UNL1       -0.0010
     18 C          61.4924   89.1420   10.2666 C.ar    1  UNL1        0.0018
     19 C          61.5138   87.6423   10.2900 C.ar    1  UNL1        0.0473
     20 C          60.6333   87.1488    9.1804 C.2     1  UNL1        0.2486
     21 O          60.3654   85.7128    8.8399 O.2     1  UNL1       -0.2699
     22 N          60.0677   88.3435    8.4713 N.am    1  UNL1       -0.2736
     23 C          60.5987   89.5753    9.1426 C.3     1  UNL1        0.1205
     24 C          59.1349   88.3118    7.2970 C.3     1  UNL1        0.0759
     25 C          58.2615   87.1146    7.0650 C.3     1  UNL1        0.0215
     26 C          59.0754   89.4774    6.3548 C.3     1  UNL1        0.0182
     27 C          58.2752   90.4832    5.5815 C.3     1  UNL1        0.0017
     28 C          59.7727   90.4905    5.4961 C.3     1  UNL1        0.0017
     29 C          66.7678   93.8202   12.4519 C.ar    1  UNL1        0.0453
     30 C          67.4814   93.2343   11.2697 C.ar    1  UNL1        0.1218
     31 N          67.5915   94.3001   10.2199 N.ar    1  UNL1       -0.1676
     32 N          66.9459   95.5445   10.7533 N.ar    1  UNL1       -0.2473
     33 C          66.8298   96.8555   10.0335 C.3     1  UNL1        0.1538
     34 C          66.4369   95.2479   12.1327 C.ar    1  UNL1        0.0969
@<TRIPOS>BOND
     1    13    14    1
     2    14    15   ar
     3    15    16   ar
     4    16     1    1
     5     1     2   ar
     6     2     3   ar
     7     3     4   ar
     8     4     5   ar
     9     5     6   ar
    10     6     7    1
    11     6     8   ar
    12     8    29    1
    13    29    30   ar
    14    30    31   ar
    15    31    32   ar
    16    32    33    1
    17    32    34   ar
    18     8     9   ar
    19     9    10   ar
    20    16    17   ar
    21    17    18   ar
    22    18    19   ar
    23    19    20    1
    24    20    21    2
    25    20    22   am
    26    22    24    1
    27    24    25    1
    28    24    26    1
    29    26    27    1
    30    27    28    1
    31    22    23    1
    32    19    14   ar
    33    28    26    1
    34    10     1   ar
    35    23    18    1
    36     9     4   ar
    37    34    29   ar
    38     7    11    1
    39     7    12    1
@<TRIPOS>MOLECULE
*****
 34 39 0 0 0
SMALL
GASTEIGER

@<TRIPOS>ATOM
      1 C          63.6376   89.2787   12.1095 C.ar    1  UNL1        0.0845
      2 C          62.6977   89.6902   11.0152 C.ar    1  UNL1        0.0399
      3 C          62.8155   91.0523   10.3982 C.ar    1  UNL1        0.1037
      4 N          63.8731   92.0030   10.8754 N.ar    1  UNL1       -0.2095
      5 N          64.2280   93.4000   10.4605 N.ar    1  UNL1       -0.1490
      6 C          65.3872   93.8520   11.2983 C.ar    1  UNL1        0.1486
      7 N          66.0658   95.1873   11.2176 N.pl3   1  UNL1       -0.3412
      8 C          65.7487   92.7342   12.2310 C.ar    1  UNL1        0.0717
      9 C          64.8129   91.5915   11.9696 C.ar    1  UNL1        0.1665
     10 N          64.6951   90.2293   12.5867 N.ar    1  UNL1       -0.2264
     11 H          65.7543   95.8594   10.5691 H       1  UNL1        0.1438
     12 H          66.8227   95.3916   11.8131 H       1  UNL1        0.1438
     13 C          64.1636   86.1376   16.2152 C.3     1  UNL1        0.0312
     14 C          63.7828   86.3460   14.7793 C.ar    1  UNL1       -0.0177
     15 C          63.9006   87.7081   14.1623 C.ar    1  UNL1       -0.0026
     16 C          63.5198   87.9165   12.7265 C.ar    1  UNL1        0.0172
     17 C          63.0212   86.7628   11.9077 C.ar    1  UNL1       -0.0010
     18 C          62.9035   85.4008   12.5248 C.ar    1  UNL1        0.0018
     19 C          63.2843   85.1923   13.9606 C.ar    1  UNL1        0.0473
     20 C          63.0635   83.7465   14.2935 C.2     1  UNL1        0.2486
     21 O          63.3157   83.0995   15.6231 O.2     1  UNL1       -0.2699
     22 N          62.5463   83.0613   13.0635 N.am    1  UNL1       -0.2736
     23 C          62.4474   84.0837   11.9703 C.3     1  UNL1        0.1205
     24 C          62.1904   81.6088   12.9470 C.3     1  UNL1        0.0759
     25 C          61.3834   80.9457   14.0235 C.3     1  UNL1        0.0215
     26 C          62.6416   80.8194   11.7540 C.3     1  UNL1        0.0182
     27 C          62.8446   79.4996   11.0708 C.3     1  UNL1        0.0017
     28 C          63.2200   80.7720   10.3708 C.3     1  UNL1        0.0017
     29 C          66.8522   92.7556   13.2468 C.ar    1  UNL1        0.0453
     30 C          68.0145   91.8092   13.3058 C.ar    1  UNL1        0.1218
     31 N          68.8679   92.1957   14.4774 N.ar    1  UNL1       -0.1676
     32 N          68.2330   93.3810   15.1422 N.ar    1  UNL1       -0.2473
     33 C          68.7527   94.0949   16.3548 C.3     1  UNL1        0.1538
     34 C          66.9873   93.7270   14.3816 C.ar    1  UNL1        0.0969
@<TRIPOS>BOND
     1    13    14    1
     2    14    15   ar
     3    15    16   ar
     4    16     1    1
     5     1     2   ar
     6     2     3   ar
     7     3     4   ar
     8     4     5   ar
     9     5     6   ar
    10     6     7    1
    11     6     8   ar
    12     8    29    1
    13    29    30   ar
    14    30    31   ar
    15    31    32   ar
    16    32    33    1
    17    32    34   ar
    18     8     9   ar
    19     9    10   ar
    20    16    17   ar
    21    17    18   ar
    22    18    19   ar
    23    19    20    1
    24    20    21    2
    25    20    22   am
    26    22    24    1
    27    24    25    1
    28    24    26    1
    29    26    27    1
    30    27    28    1
    31    22    23    1
    32    19    14   ar
    33    28    26    1
    34    10     1   ar
    35    23    18    1
    36     9     4   ar
    37    34    29   ar
    38     7    11    1
    39     7    12    1
@<TRIPOS>MOLECULE
*****
 34 39 0 0 0
SMALL
GASTEIGER

@<TRIPOS>ATOM
      1 C          72.6824   77.6824   13.0862 C.ar    1  UNL1        0.0845
      2 C          73.0044   78.6461   14.1897 C.ar    1  UNL1        0.0399
      3 C          73.3207   80.0765   13.8676 C.ar    1  UNL1        0.1037
      4 N          73.3150   80.5433   12.4421 N.ar    1  UNL1       -0.2095
      5 N          73.5851   81.8828   11.8235 N.ar    1  UNL1       -0.1490
      6 C          73.4300   81.7470   10.3378 C.ar    1  UNL1        0.1486
      7 N          73.6093   82.8424    9.3288 N.pl3   1  UNL1       -0.3412
      8 C          73.0640   80.3236   10.0381 C.ar    1  UNL1        0.0717
      9 C          72.9930   79.5797   11.3386 C.ar    1  UNL1        0.1665
     10 N          72.6767   78.1491   11.6607 N.ar    1  UNL1       -0.2264
     11 H          73.8512   83.7496    9.6249 H       1  UNL1        0.1438
     12 H          73.4851   82.6541    8.3705 H       1  UNL1        0.1438
     13 C          71.5298   72.8650   11.5163 C.3     1  UNL1        0.0312
     14 C          71.7897   73.8433   12.6233 C.ar    1  UNL1       -0.0177
     15 C          72.1061   75.2737   12.3013 C.ar    1  UNL1       -0.0026
     16 C          72.3660   76.2519   13.4083 C.ar    1  UNL1        0.0172
     17 C          72.3097   75.7997   14.8374 C.ar    1  UNL1       -0.0010
     18 C          71.9933   74.3693   15.1594 C.ar    1  UNL1        0.0018
     19 C          71.7334   73.3910   14.0524 C.ar    1  UNL1        0.0473
     20 C          71.4484   72.0550   14.6719 C.2     1  UNL1        0.2486
     21 O          71.1347   70.7888   13.9314 O.2     1  UNL1       -0.2699
     22 N          71.5322   72.2074   16.1617 N.am    1  UNL1       -0.2736
     23 C          71.8690   73.6377   16.4630 C.3     1  UNL1        0.1205
     24 C          71.3170   71.1205   17.1728 C.3     1  UNL1        0.0759
     25 C          70.4572   71.3742   18.3754 C.3     1  UNL1        0.0215
     26 C          71.9617   69.7797   16.9812 C.3     1  UNL1        0.0182
     27 C          71.8445   68.2927   16.8226 C.3     1  UNL1        0.0017
     28 C          73.1954   68.9443   16.8080 C.3     1  UNL1        0.0017
     29 C          72.8132   79.7456    8.6768 C.ar    1  UNL1        0.0453
     30 C          73.6309   78.6817    8.0064 C.ar    1  UNL1        0.1218
     31 N          73.0237   78.4086    6.6622 N.ar    1  UNL1       -0.1676
     32 N          71.8308   79.3036    6.5020 N.ar    1  UNL1       -0.2473
     33 C          70.9266   79.3621    5.3065 C.3     1  UNL1        0.1538
     34 C          71.7007   80.1299    7.7471 C.ar    1  UNL1        0.0969
@<TRIPOS>BOND
     1    13    14    1
     2    14    15   ar
     3    15    16   ar
     4    16     1    1
     5     1     2   ar
     6     2     3   ar
     7     3     4   ar
     8     4     5   ar
     9     5     6   ar
    10     6     7    1
    11     6     8   ar
    12     8    29    1
    13    29    30   ar
    14    30    31   ar
    15    31    32   ar
    16    32    33    1
    17    32    34   ar
    18     8     9   ar
    19     9    10   ar
    20    16    17   ar
    21    17    18   ar
    22    18    19   ar
    23    19    20    1
    24    20    21    2
    25    20    22   am
    26    22    24    1
    27    24    25    1
    28    24    26    1
    29    26    27    1
    30    27    28    1
    31    22    23    1
    32    19    14   ar
    33    28    26    1
    34    10     1   ar
    35    23    18    1
    36     9     4   ar
    37    34    29   ar
    38     7    11    1
    39     7    12    1
