@<TRIPOS>MOLECULE
*****
 98 98 0 0 0
SMALL
GASTEIGER

@<TRIPOS>ATOM
      1 C          60.2983   88.7920    7.4631 C.3     1  UNL1        0.1789
      2 C          59.8856   89.7650    6.3987 C.2     1  UNL1        0.2433
      3 O          58.7129   90.3149    7.1552 O.2     1  UNL1       -0.2732
      4 N          59.6958   90.6334    5.1906 N.am    1  UNL1       -0.2969
      5 C          59.7358   91.3660    3.8822 C.3     1  UNL1        0.1488
      6 C          60.0043   91.9362    2.5209 C.2     1  UNL1        0.2444
      7 O          58.8541   92.8989    2.5403 O.2     1  UNL1       -0.2731
      8 N          60.4913   92.3233    1.1561 N.am    1  UNL1       -0.2616
      9 C          59.4337   93.3595    0.9159 C.3     1  UNL1        0.1161
     10 C          61.1794   92.5134   -0.1631 C.3     1  UNL1        0.2013
     11 C          62.0437   92.4996   -1.3890 C.2     1  UNL1        0.2548
     12 O          61.2813   93.5694   -2.1131 O.2     1  UNL1       -0.2721
     13 N          63.0530   92.2824   -2.4773 N.am    1  UNL1       -0.2691
     14 C          62.4824   93.3109   -3.4082 C.3     1  UNL1        0.1153
     15 C          64.1707   91.8698   -3.3886 C.3     1  UNL1        0.1542
     16 C          65.3565   91.2764   -4.0899 C.2     1  UNL1        0.2409
     17 O          65.3654   91.7185   -4.8574 O.2     1  UNL1       -0.2733
     18 N          66.5674   90.5240   -4.5560 N.am    1  UNL1       -0.2970
     19 C          67.7599   89.6395   -4.7700 C.3     1  UNL1        0.1487
     20 C          68.8907   88.6550   -4.7241 C.2     1  UNL1        0.2439
     21 O          69.4299   88.9939   -6.0822 O.2     1  UNL1       -0.2731
     22 N          69.9190   87.6061   -4.4201 N.am    1  UNL1       -0.2699
     23 C          70.6537   87.7456   -5.7203 C.3     1  UNL1        0.1153
     24 C          70.8076   86.5307   -3.8689 C.3     1  UNL1        0.1518
     25 C          71.5244   85.4676   -3.0904 C.2     1  UNL1        0.2409
     26 O          72.5643   85.2005   -4.1378 O.2     1  UNL1       -0.2733
     27 N          72.0434   84.4553   -2.1127 N.am    1  UNL1       -0.2970
     28 C          72.3460   83.5303   -0.9712 C.3     1  UNL1        0.1486
     29 C          73.5422   82.8950   -1.6158 C.3     1  UNL1        0.0312
     30 C          72.4212   82.7262    0.2927 C.2     1  UNL1        0.2406
     31 O          73.6317   81.9379   -0.1115 O.2     1  UNL1       -0.2733
     32 N          72.2663   82.0719    1.6336 N.am    1  UNL1       -0.2970
     33 C          71.8869   81.5911    3.0029 C.3     1  UNL1        0.1489
     34 C          72.9958   80.5870    3.1138 C.3     1  UNL1        0.0312
     35 C          71.2966   81.3012    4.3510 C.2     1  UNL1        0.2439
     36 O          72.2932   80.2420    4.7183 O.2     1  UNL1       -0.2731
     37 N          70.5169   81.2126    5.6294 N.am    1  UNL1       -0.2699
     38 C          71.3653   80.1366    6.2396 C.3     1  UNL1        0.1153
     39 C          69.5759   81.3285    6.7917 C.3     1  UNL1        0.1520
     40 C          68.5075   81.6450    7.7960 C.2     1  UNL1        0.2441
     41 O          68.9739   80.6512    8.8181 O.2     1  UNL1       -0.2731
     42 N          67.3505   82.1502    8.6060 N.am    1  UNL1       -0.2699
     43 C          67.5970   81.2525    9.7821 C.3     1  UNL1        0.1153
     44 C          66.1467   82.8262    9.1924 C.3     1  UNL1        0.1520
     45 C          64.9395   83.6484    9.5340 C.2     1  UNL1        0.2441
     46 O          64.7276   83.0355   10.8865 O.2     1  UNL1       -0.2731
     47 N          63.7726   84.5871    9.6184 N.am    1  UNL1       -0.2699
     48 C          63.3389   84.1527   10.9870 C.3     1  UNL1        0.1153
     49 C          62.6881   85.6084    9.4427 C.3     1  UNL1        0.1520
     50 C          61.7254   86.6755    9.0130 C.2     1  UNL1        0.2441
     51 O          60.9024   86.6380   10.2666 O.2     1  UNL1       -0.2731
     52 N          60.9190   87.7496    8.3452 N.am    1  UNL1       -0.2680
     53 C          59.9428   87.9163    9.4717 C.3     1  UNL1        0.1154
     54 H          58.9025   91.1027    5.5363 H       1  UNL1        0.1499
     55 H          66.6315   90.9796   -5.4263 H       1  UNL1        0.1499
     56 H          72.7908   84.1537   -2.6782 H       1  UNL1        0.1499
     57 H          73.0414   81.4729    1.5356 H       1  UNL1        0.1499
     58 C          62.0483   85.3681   10.7779 C.3     1  UNL1        0.0271
     59 C          62.0382   86.4552   11.8114 C.3     1  UNL1        0.0022
     60 C          61.4185   84.0405   11.0795 C.3     1  UNL1        0.0022
     61 C          59.2040   89.1569    8.4220 C.3     1  UNL1        0.1377
     62 O          57.7970   88.7076    8.1606 O.3     1  UNL1       -0.3822
     63 H          57.2187   89.0258    8.8713 H       1  UNL1        0.2104
     64 C          59.5168   89.9712    9.6422 C.3     1  UNL1        0.0334
     65 C          58.5038   90.0942   10.7417 C.3     1  UNL1        0.0029
     66 C          60.8426   90.6625    9.7631 C.3     1  UNL1        0.0282
     67 C          63.8298   90.9353   12.3615 C.3     1  UNL1        0.0303
     68 C          63.0510   91.0251   11.0827 C.2     1  UNL1       -0.0304
     69 C          61.6214   90.5727   11.0418 C.2     1  UNL1       -0.0306
     70 C          68.0842   90.1656   -6.1368 C.3     1  UNL1        0.0269
     71 C          69.4594   90.6857   -6.4334 C.3     1  UNL1        0.0022
     72 C          67.0331   90.1715   -7.2069 C.3     1  UNL1        0.0022
     73 C          58.5347   92.2203    4.1602 C.3     1  UNL1        0.0290
     74 C          57.2977   91.6070    4.7467 C.3     1  UNL1        0.0023
     75 C          63.8126   92.8198   -4.4927 C.3     1  UNL1        0.0561
     76 C          64.1442   94.2772   -4.3651 C.3     1  UNL1        0.0906
     77 C          63.3889   94.5901   -4.7058 C.3     1  UNL1        0.0294
     78 C          65.4738   93.9223   -3.7680 C.3     1  UNL1        0.0294
     79 O          64.4759   95.7345   -4.2375 O.3     1  UNL1       -0.3867
     80 H          63.7369   96.2650   -4.5740 H       1  UNL1        0.2102
     81 C          66.1643   82.0570   10.4800 C.3     1  UNL1        0.0292
     82 C          64.8938   81.4712   11.0212 C.3     1  UNL1        0.0021
     83 C          64.6580   81.4301   12.5019 C.3     1  UNL1        0.0001
     84 C          63.8591   80.9267   10.0815 C.3     1  UNL1        0.0001
     85 C          70.2453   80.2746    7.6230 C.3     1  UNL1        0.0292
     86 C          71.4704   80.6137    8.4195 C.3     1  UNL1        0.0021
     87 C          71.4801   81.8278    9.3003 C.3     1  UNL1        0.0001
     88 C          72.6858   79.7387    8.3351 C.3     1  UNL1        0.0001
     89 C          71.7112   86.4657   -5.0643 C.3     1  UNL1        0.0292
     90 C          71.5113   85.3978   -6.0985 C.3     1  UNL1        0.0021
     91 C          70.2675   84.5597   -6.0806 C.3     1  UNL1        0.0001
     92 C          72.5553   85.1680   -7.1507 C.3     1  UNL1        0.0001
     93 S          60.2527   93.5858   -0.6541 S.3     1  UNL1       -0.1107
     94 C          59.0140   93.2161   -1.4149 C.3     1  UNL1        0.0769
     95 C          59.0684   93.0587   -2.9057 C.3     1  UNL1        0.0840
     96 N          58.2692   93.9733   -3.7860 N.3     1  UNL1       -0.2695
     97 C          58.1887   95.4374   -3.4696 C.3     1  UNL1        0.0897
     98 C          57.5506   93.4239   -4.9825 C.3     1  UNL1        0.0897
@<TRIPOS>BOND
     1    67    68    1
     2    68    69    2
     3    69    66    1
     4    66    64    1
     5    64    65    1
     6    64    61    1
     7    61    62    1
     8    61     1    1
     9     1     2    1
    10     2     3    2
    11     2     4   am
    12     4     5    1
    13     5    73    1
    14    73    74    1
    15     5     6    1
    16     6     7    2
    17     6     8   am
    18     8     9    1
    19     8    10    1
    20    10    93    1
    21    93    94    1
    22    94    95    1
    23    95    96    1
    24    96    97    1
    25    96    98    1
    26    10    11    1
    27    11    12    2
    28    11    13   am
    29    13    14    1
    30    13    15    1
    31    15    75    1
    32    75    76    1
    33    76    77    1
    34    76    78    1
    35    76    79    1
    36    15    16    1
    37    16    17    2
    38    16    18   am
    39    18    19    1
    40    19    70    1
    41    70    71    1
    42    70    72    1
    43    19    20    1
    44    20    21    2
    45    20    22   am
    46    22    23    1
    47    22    24    1
    48    24    89    1
    49    89    90    1
    50    90    91    1
    51    90    92    1
    52    24    25    1
    53    25    26    2
    54    25    27   am
    55    27    28    1
    56    28    29    1
    57    28    30    1
    58    30    31    2
    59    30    32   am
    60    32    33    1
    61    33    34    1
    62    33    35    1
    63    35    36    2
    64    35    37   am
    65    37    38    1
    66    37    39    1
    67    39    85    1
    68    85    86    1
    69    86    87    1
    70    86    88    1
    71    39    40    1
    72    40    41    2
    73    40    42   am
    74    42    43    1
    75    42    44    1
    76    44    81    1
    77    81    82    1
    78    82    83    1
    79    82    84    1
    80    44    45    1
    81    45    46    2
    82    45    47   am
    83    47    48    1
    84    47    49    1
    85    49    58    1
    86    58    59    1
    87    58    60    1
    88    49    50    1
    89    50    51    2
    90    50    52   am
    91    52    53    1
    92     1    52    1
    93    62    63    1
    94     4    54    1
    95    79    80    1
    96    18    55    1
    97    27    56    1
    98    32    57    1
@<TRIPOS>MOLECULE
*****
 98 98 0 0 0
SMALL
GASTEIGER

@<TRIPOS>ATOM
      1 C          60.2059   89.8710    7.5463 C.3     1  UNL1        0.1789
      2 C          60.0405   90.9558    6.5236 C.2     1  UNL1        0.2433
      3 O          59.1885   91.8376    7.3876 O.2     1  UNL1       -0.2732
      4 N          60.0371   91.8729    5.3367 N.am    1  UNL1       -0.2969
      5 C          60.1957   92.5894    4.0284 C.3     1  UNL1        0.1488
      6 C          60.5107   93.0791    2.6460 C.2     1  UNL1        0.2444
      7 O          59.7481   94.3645    2.7729 O.2     1  UNL1       -0.2731
      8 N          60.9707   93.3244    1.2395 N.am    1  UNL1       -0.2616
      9 C          60.2955   94.6565    1.0990 C.3     1  UNL1        0.1161
     10 C          61.5590   93.3165   -0.1402 C.3     1  UNL1        0.2013
     11 C          62.2544   93.0557   -1.4434 C.2     1  UNL1        0.2548
     12 O          61.8234   94.3366   -2.0940 O.2     1  UNL1       -0.2721
     13 N          63.0319   92.5512   -2.6230 N.am    1  UNL1       -0.2691
     14 C          62.7486   93.7363   -3.4978 C.3     1  UNL1        0.1153
     15 C          63.8631   91.8216   -3.6362 C.3     1  UNL1        0.1542
     16 C          64.7182   90.8929   -4.4464 C.2     1  UNL1        0.2409
     17 O          64.8016   91.3296   -5.2125 O.2     1  UNL1       -0.2733
     18 N          65.5661   89.7990   -5.0244 N.am    1  UNL1       -0.2970
     19 C          66.3764   88.5791   -5.3494 C.3     1  UNL1        0.1487
     20 C          67.1196   87.2776   -5.4095 C.2     1  UNL1        0.2439
     21 O          67.6134   87.4601   -6.8141 O.2     1  UNL1       -0.2731
     22 N          67.7690   85.9413   -5.2025 N.am    1  UNL1       -0.2699
     23 C          68.3862   85.8698   -6.5678 C.3     1  UNL1        0.1153
     24 C          68.3010   84.6187   -4.7361 C.3     1  UNL1        0.1518
     25 C          68.6964   83.3575   -4.0269 C.2     1  UNL1        0.2409
     26 O          69.4900   82.7947   -5.1686 O.2     1  UNL1       -0.2733
     27 N          68.9409   82.2032   -3.1007 N.am    1  UNL1       -0.2970
     28 C          69.0257   81.1977   -1.9908 C.3     1  UNL1        0.1486
     29 C          69.8819   80.2243   -2.7454 C.3     1  UNL1        0.0312
     30 C          68.9478   80.3772   -0.7376 C.2     1  UNL1        0.2406
     31 O          69.7891   79.2479   -1.2539 O.2     1  UNL1       -0.2733
     32 N          68.7099   79.7714    0.6139 N.am    1  UNL1       -0.2970
     33 C          68.3206   79.4022    2.0147 C.3     1  UNL1        0.1489
     34 C          69.0428   78.0875    2.0216 C.3     1  UNL1        0.0312
     35 C          67.7940   79.2830    3.4142 C.2     1  UNL1        0.2439
     36 O          68.4161   77.9456    3.6871 O.2     1  UNL1       -0.2731
     37 N          67.1493   79.4180    4.7617 N.am    1  UNL1       -0.2699
     38 C          67.6487   78.1063    5.2908 C.3     1  UNL1        0.1153
     39 C          66.4095   79.8023    6.0088 C.3     1  UNL1        0.1520
     40 C          65.6015   80.4222    7.1100 C.2     1  UNL1        0.2441
     41 O          65.8067   79.3014    8.0856 O.2     1  UNL1       -0.2731
     42 N          64.7545   81.2551    8.0260 N.am    1  UNL1       -0.2699
     43 C          64.7987   80.2926    9.1757 C.3     1  UNL1        0.1153
     44 C          63.8991   82.2710    8.7233 C.3     1  UNL1        0.1520
     45 C          63.0662   83.4331    9.1768 C.2     1  UNL1        0.2441
     46 O          62.7895   82.8848   10.5453 O.2     1  UNL1       -0.2731
     47 N          62.2860   84.6995    9.3702 N.am    1  UNL1       -0.2699
     48 C          61.8609   84.3919   10.7754 C.3     1  UNL1        0.1153
     49 C          61.5865   86.0245    9.2965 C.3     1  UNL1        0.1520
     50 C          60.9932   87.3600    8.9582 C.2     1  UNL1        0.2441
     51 O          60.3223   87.5581   10.2851 O.2     1  UNL1       -0.2731
     52 N          60.5274   88.6578    8.3677 N.am    1  UNL1       -0.2680
     53 C          59.7679   89.1026    9.5823 C.3     1  UNL1        0.1154
     54 H          59.4774   92.5661    5.7557 H       1  UNL1        0.1499
     55 H          65.6964   90.2333   -5.8983 H       1  UNL1        0.1499
     56 H          69.4923   81.6898   -3.7344 H       1  UNL1        0.1499
     57 H          69.2324   78.9546    0.4436 H       1  UNL1        0.1499
     58 C          61.0285   85.9687   10.6876 C.3     1  UNL1        0.0271
     59 C          61.9549   85.9488   11.8672 C.3     1  UNL1        0.0022
     60 C          59.5439   85.9327   10.8993 C.3     1  UNL1        0.0022
     61 C          59.3854   90.5465    8.6047 C.3     1  UNL1        0.1377
     62 O          57.9641   90.9319    8.3198 O.3     1  UNL1       -0.3822
     63 H          57.5804   91.3549    9.1038 H       1  UNL1        0.2104
     64 C          59.9862   90.8367    9.9482 C.3     1  UNL1        0.0334
     65 C          61.4682   91.0256   10.0820 C.3     1  UNL1        0.0029
     66 C          59.1049   90.9379   11.1578 C.3     1  UNL1        0.0282
     67 C          57.9444   88.2425   13.8296 C.3     1  UNL1        0.0303
     68 C          57.8893   89.3036   12.7706 C.2     1  UNL1       -0.0304
     69 C          59.1599   89.8769   12.2167 C.2     1  UNL1       -0.0306
     70 C          66.7289   89.0091   -6.7426 C.3     1  UNL1        0.0269
     71 C          65.7399   89.7850   -7.5609 C.3     1  UNL1        0.0022
     72 C          68.0706   88.6631   -7.3174 C.3     1  UNL1        0.0022
     73 C          59.3732   93.7817    4.4180 C.3     1  UNL1        0.0290
     74 C          58.0102   93.5901    5.0144 C.3     1  UNL1        0.0023
     75 C          63.7378   92.8679   -4.7036 C.3     1  UNL1        0.0561
     76 C          64.6762   94.0381   -4.7205 C.3     1  UNL1        0.0906
     77 C          64.8933   94.0149   -3.8621 C.3     1  UNL1        0.0294
     78 C          64.4212   94.2214   -6.1873 C.3     1  UNL1        0.0294
     79 O          65.6146   95.2082   -4.7375 O.3     1  UNL1       -0.3867
     80 H          65.9724   95.3487   -3.8469 H       1  UNL1        0.2102
     81 C          63.7807   81.5017   10.0055 C.3     1  UNL1        0.0292
     82 C          64.1899   82.1365   11.3016 C.3     1  UNL1        0.0021
     83 C          65.0873   83.3383   11.2976 C.3     1  UNL1        0.0001
     84 C          63.7016   81.5693   12.6015 C.3     1  UNL1        0.0001
     85 C          66.7683   78.5637    6.7750 C.3     1  UNL1        0.0292
     86 C          65.7903   77.4302    6.8686 C.3     1  UNL1        0.0021
     87 C          65.3817   76.9012    8.2115 C.3     1  UNL1        0.0001
     88 C          65.2210   76.8256    5.6195 C.3     1  UNL1        0.0001
     89 C          69.0193   84.2957   -6.0126 C.3     1  UNL1        0.0292
     90 C          68.7038   83.0288   -6.7510 C.3     1  UNL1        0.0021
     91 C          67.4405   82.9226   -7.5526 C.3     1  UNL1        0.0001
     92 C          69.6517   81.8680   -6.6877 C.3     1  UNL1        0.0001
     93 S          60.9957   94.6471   -0.5431 S.3     1  UNL1       -0.1107
     94 C          60.5238   94.8669   -1.9498 C.3     1  UNL1        0.0769
     95 C          59.1499   95.4131   -2.2033 C.3     1  UNL1        0.0840
     96 N          58.1429   94.5920   -2.9526 N.3     1  UNL1       -0.2695
     97 C          57.4689   93.4337   -2.2786 C.3     1  UNL1        0.0897
     98 C          57.8098   94.9289   -4.3758 C.3     1  UNL1        0.0897
@<TRIPOS>BOND
     1    67    68    1
     2    68    69    2
     3    69    66    1
     4    66    64    1
     5    64    65    1
     6    64    61    1
     7    61    62    1
     8    61     1    1
     9     1     2    1
    10     2     3    2
    11     2     4   am
    12     4     5    1
    13     5    73    1
    14    73    74    1
    15     5     6    1
    16     6     7    2
    17     6     8   am
    18     8     9    1
    19     8    10    1
    20    10    93    1
    21    93    94    1
    22    94    95    1
    23    95    96    1
    24    96    97    1
    25    96    98    1
    26    10    11    1
    27    11    12    2
    28    11    13   am
    29    13    14    1
    30    13    15    1
    31    15    75    1
    32    75    76    1
    33    76    77    1
    34    76    78    1
    35    76    79    1
    36    15    16    1
    37    16    17    2
    38    16    18   am
    39    18    19    1
    40    19    70    1
    41    70    71    1
    42    70    72    1
    43    19    20    1
    44    20    21    2
    45    20    22   am
    46    22    23    1
    47    22    24    1
    48    24    89    1
    49    89    90    1
    50    90    91    1
    51    90    92    1
    52    24    25    1
    53    25    26    2
    54    25    27   am
    55    27    28    1
    56    28    29    1
    57    28    30    1
    58    30    31    2
    59    30    32   am
    60    32    33    1
    61    33    34    1
    62    33    35    1
    63    35    36    2
    64    35    37   am
    65    37    38    1
    66    37    39    1
    67    39    85    1
    68    85    86    1
    69    86    87    1
    70    86    88    1
    71    39    40    1
    72    40    41    2
    73    40    42   am
    74    42    43    1
    75    42    44    1
    76    44    81    1
    77    81    82    1
    78    82    83    1
    79    82    84    1
    80    44    45    1
    81    45    46    2
    82    45    47   am
    83    47    48    1
    84    47    49    1
    85    49    58    1
    86    58    59    1
    87    58    60    1
    88    49    50    1
    89    50    51    2
    90    50    52   am
    91    52    53    1
    92     1    52    1
    93    62    63    1
    94     4    54    1
    95    79    80    1
    96    18    55    1
    97    27    56    1
    98    32    57    1
