@<TRIPOS>MOLECULE
*****
 37 39 0 0 0
SMALL
GASTEIGER

@<TRIPOS>ATOM
      1 N          63.3732   90.5048   12.0693 N.pl3   1  UNL1       -0.3043
      2 C          63.5031   90.1131   10.6272 C.3     1  UNL1        0.1123
      3 C          62.3547   89.4535    9.9228 C.3     1  UNL1        0.1148
      4 N          61.0764   89.1855   10.6606 N.am    1  UNL1       -0.2760
      5 C          59.9281   88.5259    9.9563 C.2     1  UNL1        0.2256
      6 O          58.6499   88.2580   10.6940 O.2     1  UNL1       -0.2749
      7 C          60.9466   89.5772   12.1027 C.3     1  UNL1        0.1148
      8 C          62.0950   90.2369   12.8071 C.3     1  UNL1        0.1123
      9 C          64.9594   90.6699   14.1204 C.ar    1  UNL1        0.0050
     10 C          66.1078   91.3295   14.8246 C.ar    1  UNL1       -0.0060
     11 C          66.8184   92.4838   14.1822 C.ar    1  UNL1       -0.0220
     12 C          67.9668   93.1434   14.8865 C.3     1  UNL1        0.0310
     13 C          66.3806   92.9784   12.8355 C.ar    1  UNL1       -0.0030
     14 C          65.2323   92.3187   12.1312 C.ar    1  UNL1        0.0139
     15 C          64.5216   91.1645   12.7737 C.ar    1  UNL1        0.0451
     16 C          64.2488   89.5156   14.7628 C.3     1  UNL1        0.0780
     17 C          63.5542   89.7013   16.0792 C.3     1  UNL1        0.0187
     18 C          63.4001   91.0763   16.6586 C.3     1  UNL1        0.0017
     19 C          63.0137   88.5119   16.8164 C.3     1  UNL1        0.0017
     20 N          64.2328   88.1757   14.0888 N.3     1  UNL1       -0.2939
     21 H          63.2609   87.9773   13.8511 H       1  UNL1        0.1235
     22 C          64.7580   86.9683   14.8074 C.3     1  UNL1        0.0861
     23 C          64.2021   85.6101   14.4973 C.3     1  UNL1        0.0859
     24 C          62.3589   83.8145   14.8561 C.3     1  UNL1        0.0859
     25 N          62.8325   85.2325   14.9786 N.3     1  UNL1       -0.2952
     26 H          62.7922   85.4718   15.9694 H       1  UNL1        0.1233
     27 C          60.0580   88.1342    8.5141 C.3     1  UNL1        0.0811
     28 C          59.8436   89.1561    7.4372 C.3     1  UNL1        0.0099
     29 C          60.4022   86.7207    8.1490 C.3     1  UNL1        0.0377
     30 C          61.3654   85.9411    8.9942 C.ar    1  UNL1        0.0058
     31 C          61.2177   85.9338   10.4869 C.ar    1  UNL1       -0.0012
     32 C          62.1809   85.1542   11.3321 C.ar    1  UNL1        0.0112
     33 C          63.2919   84.3818   10.6846 C.ar    1  UNL1        0.0599
     34 CL         64.2551   83.6021   11.5298 Cl      1  UNL1       -0.0822
     35 C          63.4395   84.3890    9.1919 C.ar    1  UNL1        0.0407
     36 C          62.4763   85.1687    8.3467 C.ar    1  UNL1        0.1370
     37 F          62.6240   85.1759    6.8540 F       1  UNL1       -0.2045
@<TRIPOS>BOND
     1    24    25    1
     2    25    23    1
     3    23    22    1
     4    22    20    1
     5    16    20    1
     6    16     9    1
     7     9    10   ar
     8    10    11   ar
     9    11    12    1
    10    11    13   ar
    11    13    14   ar
    12    14    15   ar
    13    15     1    1
    14     1     2    1
    15     2     3    1
    16     3     4    1
    17     4     5   am
    18     5     6    2
    19     5    27    1
    20    27    28    1
    21    27    29    1
    22    29    30    1
    23    30    31   ar
    24    31    32   ar
    25    32    33   ar
    26    33    34    1
    27    33    35   ar
    28    35    36   ar
    29    36    37    1
    30     4     7    1
    31     7     8    1
    32    16    17    1
    33    17    18    1
    34    17    19    1
    35    15     9   ar
    36     8     1    1
    37    36    30   ar
    38    25    26    1
    39    20    21    1
@<TRIPOS>MOLECULE
*****
 37 39 0 0 0
SMALL
GASTEIGER

@<TRIPOS>ATOM
      1 N          63.4298   86.2722   13.3338 N.pl3   1  UNL1       -0.3043
      2 C          64.2800   86.9235   14.3840 C.3     1  UNL1        0.1123
      3 C          64.5504   88.3976   14.3222 C.3     1  UNL1        0.1148
      4 N          63.9705   89.2205   13.2102 N.am    1  UNL1       -0.2760
      5 C          64.2409   90.6946   13.1484 C.2     1  UNL1        0.2256
      6 O          63.6611   91.5175   12.0364 O.2     1  UNL1       -0.2749
      7 C          63.1203   88.5693   12.1599 C.3     1  UNL1        0.1148
      8 C          62.8500   87.0951   12.2218 C.3     1  UNL1        0.1123
      9 C          62.6467   84.0781   12.1837 C.ar    1  UNL1        0.0050
     10 C          62.3763   82.6040   12.2456 C.ar    1  UNL1       -0.0060
     11 C          62.6188   81.8498   13.5193 C.ar    1  UNL1       -0.0220
     12 C          62.3484   80.3756   13.5811 C.3     1  UNL1        0.0310
     13 C          63.1315   82.5697   14.7312 C.ar    1  UNL1       -0.0030
     14 C          63.4019   84.0438   14.6693 C.ar    1  UNL1        0.0139
     15 C          63.1594   84.7980   13.3956 C.ar    1  UNL1        0.0451
     16 C          62.4043   84.8323   10.9099 C.3     1  UNL1        0.0780
     17 C          63.2803   84.5903    9.7167 C.3     1  UNL1        0.0187
     18 C          63.1835   85.4899    8.5204 C.3     1  UNL1        0.0017
     19 C          64.2533   83.4485    9.7198 C.3     1  UNL1        0.0017
     20 N          61.2858   85.8285   10.8294 N.3     1  UNL1       -0.2939
     21 H          60.5136   85.4492   11.3775 H       1  UNL1        0.1235
     22 C          60.7205   86.2153    9.4949 C.3     1  UNL1        0.0861
     23 C          59.9798   87.5106    9.3411 C.3     1  UNL1        0.0859
     24 C          60.2347   89.9547   10.1845 C.3     1  UNL1        0.0859
     25 N          60.7300   88.8094    9.3520 N.3     1  UNL1       -0.2952
     26 H          61.6758   88.6005    9.6716 H       1  UNL1        0.1233
     27 C          65.0911   91.3459   14.1987 C.3     1  UNL1        0.0811
     28 C          64.5683   91.5029   15.5957 C.3     1  UNL1        0.0099
     29 C          66.4642   91.8401   13.8518 C.3     1  UNL1        0.0377
     30 C          66.7109   92.5024   12.5287 C.ar    1  UNL1        0.0058
     31 C          65.8343   93.6345   12.0817 C.ar    1  UNL1       -0.0012
     32 C          66.0810   94.2968   10.7586 C.ar    1  UNL1        0.0112
     33 C          67.2044   93.8269    9.8826 C.ar    1  UNL1        0.0599
     34 CL         67.4511   94.4892    8.5595 Cl      1  UNL1       -0.0822
     35 C          68.0809   92.6948   10.3297 C.ar    1  UNL1        0.0407
     36 C          67.8342   92.0325   11.6527 C.ar    1  UNL1        0.1370
     37 F          68.7108   90.9005   12.0998 F       1  UNL1       -0.2045
@<TRIPOS>BOND
     1    24    25    1
     2    25    23    1
     3    23    22    1
     4    22    20    1
     5    16    20    1
     6    16     9    1
     7     9    10   ar
     8    10    11   ar
     9    11    12    1
    10    11    13   ar
    11    13    14   ar
    12    14    15   ar
    13    15     1    1
    14     1     2    1
    15     2     3    1
    16     3     4    1
    17     4     5   am
    18     5     6    2
    19     5    27    1
    20    27    28    1
    21    27    29    1
    22    29    30    1
    23    30    31   ar
    24    31    32   ar
    25    32    33   ar
    26    33    34    1
    27    33    35   ar
    28    35    36   ar
    29    36    37    1
    30     4     7    1
    31     7     8    1
    32    16    17    1
    33    17    18    1
    34    17    19    1
    35    15     9   ar
    36     8     1    1
    37    36    30   ar
    38    25    26    1
    39    20    21    1
@<TRIPOS>MOLECULE
*****
 37 39 0 0 0
SMALL
GASTEIGER

@<TRIPOS>ATOM
      1 N          62.3860   89.5455   11.5775 N.pl3   1  UNL1       -0.3043
      2 C          63.6366   90.2306   11.1120 C.3     1  UNL1        0.1123
      3 C          64.5041   90.9578   12.0961 C.3     1  UNL1        0.1148
      4 N          64.1211   90.9999   13.5459 N.am    1  UNL1       -0.2760
      5 C          64.9886   91.7271   14.5300 C.2     1  UNL1        0.2256
      6 O          64.6056   91.7692   15.9796 O.2     1  UNL1       -0.2749
      7 C          62.8705   90.3148   14.0114 C.3     1  UNL1        0.1148
      8 C          62.0029   89.5876   13.0272 C.3     1  UNL1        0.1123
      9 C          61.5763   87.3220   10.5048 C.ar    1  UNL1        0.0050
     10 C          60.7087   86.5949    9.5207 C.ar    1  UNL1       -0.0060
     11 C          59.7834   87.3640    8.6250 C.ar    1  UNL1       -0.0220
     12 C          58.9158   86.6368    7.6408 C.3     1  UNL1        0.0310
     13 C          59.7255   88.8602    8.7135 C.ar    1  UNL1       -0.0030
     14 C          60.5931   89.5874    9.6977 C.ar    1  UNL1        0.0139
     15 C          61.5184   88.8183   10.5933 C.ar    1  UNL1        0.0451
     16 C          62.5016   86.5529   11.4005 C.3     1  UNL1        0.0780
     17 C          62.7834   85.1060   11.1230 C.3     1  UNL1        0.0187
     18 C          63.3854   84.6973    9.8113 C.3     1  UNL1        0.0017
     19 C          62.4632   84.0678   12.1572 C.3     1  UNL1        0.0017
     20 N          63.1452   87.2307   12.5736 N.3     1  UNL1       -0.2939
     21 H          63.8270   87.8887   12.1959 H       1  UNL1        0.1235
     22 C          63.8586   86.4163   13.6118 C.3     1  UNL1        0.0861
     23 C          64.2950   87.0553   14.8969 C.3     1  UNL1        0.0859
     24 C          63.0733   88.0827   16.9467 C.3     1  UNL1        0.0859
     25 N          63.4701   86.8834   16.1379 N.3     1  UNL1       -0.2952
     26 H          62.6065   86.4198   15.8556 H       1  UNL1        0.1233
     27 C          66.2392   92.4122   14.0645 C.3     1  UNL1        0.0811
     28 C          67.5573   91.7004   14.1412 C.3     1  UNL1        0.0099
     29 C          66.1717   93.8091   13.5222 C.3     1  UNL1        0.0377
     30 C          66.4726   94.0674   12.0755 C.ar    1  UNL1        0.0058
     31 C          66.8864   92.9358   11.1819 C.ar    1  UNL1       -0.0012
     32 C          67.1873   93.1941    9.7353 C.ar    1  UNL1        0.0112
     33 C          67.0744   94.5840    9.1823 C.ar    1  UNL1        0.0599
     34 CL         67.3753   94.8422    7.7356 Cl      1  UNL1       -0.0822
     35 C          66.6606   95.7154   10.0759 C.ar    1  UNL1        0.0407
     36 C          66.3597   95.4571   11.5225 C.ar    1  UNL1        0.1370
     37 F          65.9459   96.5885   12.4161 F       1  UNL1       -0.2045
@<TRIPOS>BOND
     1    24    25    1
     2    25    23    1
     3    23    22    1
     4    22    20    1
     5    16    20    1
     6    16     9    1
     7     9    10   ar
     8    10    11   ar
     9    11    12    1
    10    11    13   ar
    11    13    14   ar
    12    14    15   ar
    13    15     1    1
    14     1     2    1
    15     2     3    1
    16     3     4    1
    17     4     5   am
    18     5     6    2
    19     5    27    1
    20    27    28    1
    21    27    29    1
    22    29    30    1
    23    30    31   ar
    24    31    32   ar
    25    32    33   ar
    26    33    34    1
    27    33    35   ar
    28    35    36   ar
    29    36    37    1
    30     4     7    1
    31     7     8    1
    32    16    17    1
    33    17    18    1
    34    17    19    1
    35    15     9   ar
    36     8     1    1
    37    36    30   ar
    38    25    26    1
    39    20    21    1
@<TRIPOS>MOLECULE
*****
 37 39 0 0 0
SMALL
GASTEIGER

@<TRIPOS>ATOM
      1 N          63.4076   90.5793   12.2389 N.pl3   1  UNL1       -0.3043
      2 C          63.4913   90.0856   10.8249 C.3     1  UNL1        0.1123
      3 C          62.2725   89.5273   10.1521 C.3     1  UNL1        0.1148
      4 N          60.9699   89.4626   10.8933 N.am    1  UNL1       -0.2760
      5 C          59.7511   88.9042   10.2205 C.2     1  UNL1        0.2256
      6 O          58.4486   88.8396   10.9617 O.2     1  UNL1       -0.2749
      7 C          60.8863   89.9562   12.3073 C.3     1  UNL1        0.1148
      8 C          62.1052   90.5146   12.9801 C.3     1  UNL1        0.1123
      9 C          65.0721   90.5868   14.2338 C.ar    1  UNL1        0.0050
     10 C          66.2909   91.1452   14.9066 C.ar    1  UNL1       -0.0060
     11 C          67.0642   92.2543   14.2571 C.ar    1  UNL1       -0.0220
     12 C          68.2832   92.8127   14.9299 C.3     1  UNL1        0.0310
     13 C          66.6187   92.8051   12.9350 C.ar    1  UNL1       -0.0030
     14 C          65.3999   92.2468   12.2623 C.ar    1  UNL1        0.0139
     15 C          64.6266   91.1376   12.9117 C.ar    1  UNL1        0.0451
     16 C          64.2987   89.4777   14.8833 C.3     1  UNL1        0.0780
     17 C          64.4150   88.0764   14.3609 C.3     1  UNL1        0.0187
     18 C          63.6488   87.6657   13.1385 C.3     1  UNL1        0.0017
     19 C          65.2976   87.0858   15.0609 C.3     1  UNL1        0.0017
     20 N          63.4091   89.7698   16.0551 N.3     1  UNL1       -0.2939
     21 H          64.0202   89.9316   16.8556 H       1  UNL1        0.1235
     22 C          62.3850   88.7631   16.4886 C.3     1  UNL1        0.0861
     23 C          62.7640   87.6722   17.4459 C.3     1  UNL1        0.0859
     24 C          62.4314   85.2679   16.5194 C.3     1  UNL1        0.0859
     25 N          62.0114   86.3747   17.4405 N.3     1  UNL1       -0.2952
     26 H          62.0593   86.0026   18.3890 H       1  UNL1        0.1233
     27 C          59.8347   88.4106    8.8065 C.3     1  UNL1        0.0811
     28 C          59.9306   89.3901    7.6746 C.3     1  UNL1        0.0099
     29 C          59.8226   86.9374    8.5245 C.3     1  UNL1        0.0377
     30 C          61.0070   86.0936    8.8921 C.ar    1  UNL1        0.0058
     31 C          61.8543   85.4811    7.8165 C.ar    1  UNL1       -0.0012
     32 C          63.0387   84.6373    8.1841 C.ar    1  UNL1        0.0112
     33 C          63.3758   84.4059    9.6274 C.ar    1  UNL1        0.0599
     34 CL         64.5602   83.5621    9.9950 Cl      1  UNL1       -0.0822
     35 C          62.5284   85.0184   10.7029 C.ar    1  UNL1        0.0407
     36 C          61.3440   85.8622   10.3353 C.ar    1  UNL1        0.1370
     37 F          60.4967   86.4747   11.4109 F       1  UNL1       -0.2045
@<TRIPOS>BOND
     1    24    25    1
     2    25    23    1
     3    23    22    1
     4    22    20    1
     5    16    20    1
     6    16     9    1
     7     9    10   ar
     8    10    11   ar
     9    11    12    1
    10    11    13   ar
    11    13    14   ar
    12    14    15   ar
    13    15     1    1
    14     1     2    1
    15     2     3    1
    16     3     4    1
    17     4     5   am
    18     5     6    2
    19     5    27    1
    20    27    28    1
    21    27    29    1
    22    29    30    1
    23    30    31   ar
    24    31    32   ar
    25    32    33   ar
    26    33    34    1
    27    33    35   ar
    28    35    36   ar
    29    36    37    1
    30     4     7    1
    31     7     8    1
    32    16    17    1
    33    17    18    1
    34    17    19    1
    35    15     9   ar
    36     8     1    1
    37    36    30   ar
    38    25    26    1
    39    20    21    1
@<TRIPOS>MOLECULE
*****
 37 39 0 0 0
SMALL
GASTEIGER

@<TRIPOS>ATOM
      1 N          63.4283   85.6033   14.0652 N.pl3   1  UNL1       -0.3043
      2 C          63.6792   86.5228   12.9069 C.3     1  UNL1        0.1123
      3 C          63.9420   87.9796   13.1490 C.3     1  UNL1        0.1148
      4 N          63.9539   88.5170   14.5494 N.am    1  UNL1       -0.2760
      5 C          64.2167   89.9738   14.7915 C.2     1  UNL1        0.2256
      6 O          64.2286   90.5111   16.1919 O.2     1  UNL1       -0.2749
      7 C          63.7030   87.5975   15.7077 C.3     1  UNL1        0.1148
      8 C          63.4402   86.1406   15.4655 C.3     1  UNL1        0.1123
      9 C          62.6779   83.6851   12.4816 C.ar    1  UNL1        0.0050
     10 C          62.4151   82.2284   12.2395 C.ar    1  UNL1       -0.0060
     11 C          62.6400   81.2329   13.3388 C.ar    1  UNL1       -0.0220
     12 C          62.3772   79.7760   13.0966 C.3     1  UNL1        0.0310
     13 C          63.1276   81.6942   14.6802 C.ar    1  UNL1       -0.0030
     14 C          63.3904   83.1510   14.9223 C.ar    1  UNL1        0.0139
     15 C          63.1655   84.1464   13.8230 C.ar    1  UNL1        0.0451
     16 C          62.4530   84.6806   11.3823 C.3     1  UNL1        0.0780
     17 C          63.1740   84.5306   10.0756 C.3     1  UNL1        0.0187
     18 C          64.2000   83.4498    9.9048 C.3     1  UNL1        0.0017
     19 C          62.8690   85.4614    8.9395 C.3     1  UNL1        0.0017
     20 N          61.5072   85.8262   11.5898 N.3     1  UNL1       -0.2939
     21 H          60.7665   85.4888   12.2046 H       1  UNL1        0.1235
     22 C          60.8343   86.4660   10.4117 C.3     1  UNL1        0.0861
     23 C          60.2445   87.8393   10.5395 C.3     1  UNL1        0.0859
     24 C          59.2916   89.7492   12.0208 C.3     1  UNL1        0.0859
     25 N          59.8425   88.3605   11.8874 N.3     1  UNL1       -0.2952
     26 H          59.1307   87.7253   12.2483 H       1  UNL1        0.1233
     27 C          64.4676   90.8932   13.6332 C.3     1  UNL1        0.0811
     28 C          63.3595   91.2095   12.6730 C.3     1  UNL1        0.0099
     29 C          65.8266   91.4965   13.4352 C.3     1  UNL1        0.0377
     30 C          66.0171   92.6071   12.4452 C.ar    1  UNL1        0.0058
     31 C          65.9487   92.3207   10.9744 C.ar    1  UNL1       -0.0012
     32 C          66.1393   93.4314    9.9844 C.ar    1  UNL1        0.0112
     33 C          66.3982   94.8285   10.4652 C.ar    1  UNL1        0.0599
     34 CL         66.5888   95.9392    9.4752 Cl      1  UNL1       -0.0822
     35 C          66.4667   95.1148   11.9360 C.ar    1  UNL1        0.0407
     36 C          66.2761   94.0042   12.9260 C.ar    1  UNL1        0.1370
     37 F          66.3445   94.2905   14.3968 F       1  UNL1       -0.2045
@<TRIPOS>BOND
     1    24    25    1
     2    25    23    1
     3    23    22    1
     4    22    20    1
     5    16    20    1
     6    16     9    1
     7     9    10   ar
     8    10    11   ar
     9    11    12    1
    10    11    13   ar
    11    13    14   ar
    12    14    15   ar
    13    15     1    1
    14     1     2    1
    15     2     3    1
    16     3     4    1
    17     4     5   am
    18     5     6    2
    19     5    27    1
    20    27    28    1
    21    27    29    1
    22    29    30    1
    23    30    31   ar
    24    31    32   ar
    25    32    33   ar
    26    33    34    1
    27    33    35   ar
    28    35    36   ar
    29    36    37    1
    30     4     7    1
    31     7     8    1
    32    16    17    1
    33    17    18    1
    34    17    19    1
    35    15     9   ar
    36     8     1    1
    37    36    30   ar
    38    25    26    1
    39    20    21    1
@<TRIPOS>MOLECULE
*****
 37 39 0 0 0
SMALL
GASTEIGER

@<TRIPOS>ATOM
      1 N          58.3920   95.0080   -2.4146 N.pl3   1  UNL1       -0.3043
      2 C          58.9883   93.7165   -1.9388 C.3     1  UNL1        0.1123
      3 C          59.7978   93.6842   -0.6764 C.3     1  UNL1        0.1148
      4 N          60.0109   94.9435    0.1103 N.am    1  UNL1       -0.2760
      5 C          60.8203   94.9111    1.3727 C.2     1  UNL1        0.2256
      6 O          61.0334   96.1704    2.1594 O.2     1  UNL1       -0.2749
      7 C          59.4146   96.2350   -0.3654 C.3     1  UNL1        0.1148
      8 C          58.6051   96.2673   -1.6279 C.3     1  UNL1        0.1123
      9 C          56.1002   94.8175   -3.6235 C.ar    1  UNL1        0.0050
     10 C          55.2908   94.8497   -4.8859 C.ar    1  UNL1       -0.0060
     11 C          55.9638   95.1049   -6.2020 C.ar    1  UNL1       -0.0220
     12 C          55.1543   95.1371   -7.4645 C.3     1  UNL1        0.0310
     13 C          57.4461   95.3277   -6.2556 C.ar    1  UNL1       -0.0030
     14 C          58.2555   95.2954   -4.9931 C.ar    1  UNL1        0.0139
     15 C          57.5825   95.0403   -3.6771 C.ar    1  UNL1        0.0451
     16 C          55.4272   94.5624   -2.3074 C.3     1  UNL1        0.0780
     17 C          54.4917   95.5844   -1.7329 C.3     1  UNL1        0.0187
     18 C          53.0173   95.4793   -1.9885 C.3     1  UNL1        0.0017
     19 C          55.0304   96.7116   -0.9027 C.3     1  UNL1        0.0017
     20 N          55.6898   93.2852   -1.5659 N.3     1  UNL1       -0.2939
     21 H          56.6686   93.3067   -1.2798 H       1  UNL1        0.1235
     22 C          55.4653   91.9654   -2.2424 C.3     1  UNL1        0.0861
     23 C          56.4709   91.4467   -3.2271 C.3     1  UNL1        0.0859
     24 C          57.0831   91.6560   -5.7433 C.3     1  UNL1        0.0859
     25 N          56.0971   91.2958   -4.6719 N.3     1  UNL1       -0.2952
     26 H          55.8547   90.3151   -4.8125 H       1  UNL1        0.1233
     27 C          61.4167   93.6196    1.8485 C.3     1  UNL1        0.0811
     28 C          60.6762   92.7719    2.8400 C.3     1  UNL1        0.0099
     29 C          62.7534   93.1758    1.3327 C.3     1  UNL1        0.0377
     30 C          63.5689   94.0958    0.4734 C.ar    1  UNL1        0.0058
     31 C          63.4743   94.0067   -1.0210 C.ar    1  UNL1       -0.0012
     32 C          64.2898   94.9267   -1.8804 C.ar    1  UNL1        0.0112
     33 C          65.2000   95.9359   -1.2453 C.ar    1  UNL1        0.0599
     34 CL         66.0155   96.8559   -2.1046 Cl      1  UNL1       -0.0822
     35 C          65.2946   96.0250    0.2490 C.ar    1  UNL1        0.0407
     36 C          64.4791   95.1049    1.1084 C.ar    1  UNL1        0.1370
     37 F          64.5737   95.1940    2.6027 F       1  UNL1       -0.2045
@<TRIPOS>BOND
     1    24    25    1
     2    25    23    1
     3    23    22    1
     4    22    20    1
     5    16    20    1
     6    16     9    1
     7     9    10   ar
     8    10    11   ar
     9    11    12    1
    10    11    13   ar
    11    13    14   ar
    12    14    15   ar
    13    15     1    1
    14     1     2    1
    15     2     3    1
    16     3     4    1
    17     4     5   am
    18     5     6    2
    19     5    27    1
    20    27    28    1
    21    27    29    1
    22    29    30    1
    23    30    31   ar
    24    31    32   ar
    25    32    33   ar
    26    33    34    1
    27    33    35   ar
    28    35    36   ar
    29    36    37    1
    30     4     7    1
    31     7     8    1
    32    16    17    1
    33    17    18    1
    34    17    19    1
    35    15     9   ar
    36     8     1    1
    37    36    30   ar
    38    25    26    1
    39    20    21    1
@<TRIPOS>MOLECULE
*****
 37 39 0 0 0
SMALL
GASTEIGER

@<TRIPOS>ATOM
      1 N          62.7092   86.6513   10.9195 N.pl3   1  UNL1       -0.3043
      2 C          63.0658   88.1037   11.0360 C.3     1  UNL1        0.1123
      3 C          63.4523   88.6766   12.3673 C.3     1  UNL1        0.1148
      4 N          63.4822   87.7972   13.5822 N.am    1  UNL1       -0.2760
      5 C          63.8686   88.3701   14.9135 C.2     1  UNL1        0.2256
      6 O          63.8984   87.4907   16.1282 O.2     1  UNL1       -0.2749
      7 C          63.1255   86.3448   13.4657 C.3     1  UNL1        0.1148
      8 C          62.7391   85.7719   12.1343 C.3     1  UNL1        0.1123
      9 C          61.1110   86.5965    8.8719 C.ar    1  UNL1        0.0050
     10 C          60.7246   86.0236    7.5406 C.ar    1  UNL1       -0.0060
     11 C          61.5500   84.9326    6.9256 C.ar    1  UNL1       -0.0220
     12 C          61.1635   84.3597    5.5942 C.3     1  UNL1        0.0310
     13 C          62.7618   84.4144    7.6418 C.ar    1  UNL1       -0.0030
     14 C          63.1482   84.9874    8.9731 C.ar    1  UNL1        0.0139
     15 C          62.3228   86.0784    9.5882 C.ar    1  UNL1        0.0451
     16 C          60.2856   87.6876    9.4870 C.3     1  UNL1        0.0780
     17 C          60.1605   89.0133    8.7966 C.3     1  UNL1        0.0187
     18 C          60.7401   90.2449    9.4270 C.3     1  UNL1        0.0017
     19 C          59.4559   89.1076    7.4757 C.3     1  UNL1        0.0017
     20 N          59.5852   87.4529   10.7925 N.3     1  UNL1       -0.2939
     21 H          58.5885   87.3901   10.5848 H       1  UNL1        0.1235
     22 C          59.7329   88.4412   11.9112 C.3     1  UNL1        0.0861
     23 C          58.5224   89.1298   12.4684 C.3     1  UNL1        0.0859
     24 C          56.2926   88.0325   13.2260 C.3     1  UNL1        0.0859
     25 N          57.6988   88.4588   13.5274 N.3     1  UNL1       -0.2952
     26 H          58.2069   87.6202   13.8083 H       1  UNL1        0.1233
     27 C          64.2252   89.8224   15.0300 C.3     1  UNL1        0.0811
     28 C          63.2095   90.8063   15.5303 C.3     1  UNL1        0.0099
     29 C          65.5975   90.2909   14.6462 C.3     1  UNL1        0.0377
     30 C          65.7673   91.5745   13.8889 C.ar    1  UNL1        0.0058
     31 C          65.3180   91.6678   12.4608 C.ar    1  UNL1       -0.0012
     32 C          65.4878   92.9514   11.7035 C.ar    1  UNL1        0.0112
     33 C          66.1070   94.1417   12.3743 C.ar    1  UNL1        0.0599
     34 CL         66.2769   95.4253   11.6170 Cl      1  UNL1       -0.0822
     35 C          66.5564   94.0483   13.8023 C.ar    1  UNL1        0.0407
     36 C          66.3865   92.7647   14.5596 C.ar    1  UNL1        0.1370
     37 F          66.8359   92.6713   15.9876 F       1  UNL1       -0.2045
@<TRIPOS>BOND
     1    24    25    1
     2    25    23    1
     3    23    22    1
     4    22    20    1
     5    16    20    1
     6    16     9    1
     7     9    10   ar
     8    10    11   ar
     9    11    12    1
    10    11    13   ar
    11    13    14   ar
    12    14    15   ar
    13    15     1    1
    14     1     2    1
    15     2     3    1
    16     3     4    1
    17     4     5   am
    18     5     6    2
    19     5    27    1
    20    27    28    1
    21    27    29    1
    22    29    30    1
    23    30    31   ar
    24    31    32   ar
    25    32    33   ar
    26    33    34    1
    27    33    35   ar
    28    35    36   ar
    29    36    37    1
    30     4     7    1
    31     7     8    1
    32    16    17    1
    33    17    18    1
    34    17    19    1
    35    15     9   ar
    36     8     1    1
    37    36    30   ar
    38    25    26    1
    39    20    21    1
@<TRIPOS>MOLECULE
*****
 37 39 0 0 0
SMALL
GASTEIGER

@<TRIPOS>ATOM
      1 N          64.5604   91.2772   13.4708 N.pl3   1  UNL1       -0.3043
      2 C          64.6073   91.0981   11.9823 C.3     1  UNL1        0.1123
      3 C          63.5047   90.3623   11.2803 C.3     1  UNL1        0.1148
      4 N          62.3551   89.8056   12.0668 N.am    1  UNL1       -0.2760
      5 C          61.2525   89.0698   11.3648 C.2     1  UNL1        0.2256
      6 O          60.1030   88.5131   12.1513 O.2     1  UNL1       -0.2749
      7 C          62.3082   89.9847   13.5553 C.3     1  UNL1        0.1148
      8 C          63.4109   90.7206   14.2573 C.3     1  UNL1        0.1123
      9 C          66.6284   92.8475   13.3844 C.ar    1  UNL1        0.0050
     10 C          67.7310   93.5833   14.0864 C.ar    1  UNL1       -0.0060
     11 C          67.8682   93.4847   15.5768 C.ar    1  UNL1       -0.0220
     12 C          68.9709   94.2206   16.2788 C.3     1  UNL1        0.0310
     13 C          66.9028   92.6503   16.3653 C.ar    1  UNL1       -0.0030
     14 C          65.8002   91.9145   15.6633 C.ar    1  UNL1        0.0139
     15 C          65.6630   92.0131   14.1728 C.ar    1  UNL1        0.0451
     16 C          66.4912   92.9462   11.8939 C.3     1  UNL1        0.0780
     17 C          67.4617   92.2297   11.0024 C.3     1  UNL1        0.0187
     18 C          67.3956   92.4197    9.5159 C.3     1  UNL1        0.0017
     19 C          68.4983   91.3233   11.5972 C.3     1  UNL1        0.0017
     20 N          65.3836   93.7612   11.2950 N.3     1  UNL1       -0.2939
     21 H          65.2498   93.4215   10.3426 H       1  UNL1        0.1235
     22 C          65.5125   95.2532   11.2084 C.3     1  UNL1        0.0861
     23 C          66.7162   95.8653   10.5552 C.3     1  UNL1        0.0859
     24 C          67.4474   96.1168    8.0749 C.3     1  UNL1        0.0859
     25 N          66.5833   96.5439    9.2241 N.3     1  UNL1       -0.2952
     26 H          65.6155   96.4211    8.9263 H       1  UNL1        0.1233
     27 C          61.2995   88.8907    9.8763 C.3     1  UNL1        0.0811
     28 C          61.4814   90.0817    8.9829 C.3     1  UNL1        0.0099
     29 C          61.1644   87.5205    9.2811 C.3     1  UNL1        0.0377
     30 C          61.9420   86.3734    9.8552 C.ar    1  UNL1        0.0058
     31 C          61.9885   86.1674   11.3403 C.ar    1  UNL1       -0.0012
     32 C          62.7661   85.0204   11.9144 C.ar    1  UNL1        0.0112
     33 C          63.4973   84.0793   11.0034 C.ar    1  UNL1        0.0599
     34 CL         64.2749   82.9322   11.5775 Cl      1  UNL1       -0.0822
     35 C          63.4508   84.2853    9.5184 C.ar    1  UNL1        0.0407
     36 C          62.6732   85.4324    8.9443 C.ar    1  UNL1        0.1370
     37 F          62.6267   85.6384    7.4593 F       1  UNL1       -0.2045
@<TRIPOS>BOND
     1    24    25    1
     2    25    23    1
     3    23    22    1
     4    22    20    1
     5    16    20    1
     6    16     9    1
     7     9    10   ar
     8    10    11   ar
     9    11    12    1
    10    11    13   ar
    11    13    14   ar
    12    14    15   ar
    13    15     1    1
    14     1     2    1
    15     2     3    1
    16     3     4    1
    17     4     5   am
    18     5     6    2
    19     5    27    1
    20    27    28    1
    21    27    29    1
    22    29    30    1
    23    30    31   ar
    24    31    32   ar
    25    32    33   ar
    26    33    34    1
    27    33    35   ar
    28    35    36   ar
    29    36    37    1
    30     4     7    1
    31     7     8    1
    32    16    17    1
    33    17    18    1
    34    17    19    1
    35    15     9   ar
    36     8     1    1
    37    36    30   ar
    38    25    26    1
    39    20    21    1
@<TRIPOS>MOLECULE
*****
 37 39 0 0 0
SMALL
GASTEIGER

@<TRIPOS>ATOM
      1 N          58.6454   95.2547   -3.9059 N.pl3   1  UNL1       -0.3043
      2 C          59.3939   96.3822   -3.2590 C.3     1  UNL1        0.1123
      3 C          60.7602   96.1450   -2.6872 C.3     1  UNL1        0.1148
      4 N          61.3781   94.7802   -2.7623 N.am    1  UNL1       -0.2760
      5 C          62.7443   94.5430   -2.1906 C.2     1  UNL1        0.2256
      6 O          63.3622   93.1782   -2.2657 O.2     1  UNL1       -0.2749
      7 C          60.6296   93.6527   -3.4092 C.3     1  UNL1        0.1148
      8 C          59.2632   93.8899   -3.9810 C.3     1  UNL1        0.1123
      9 C          56.0599   95.1337   -3.6806 C.ar    1  UNL1        0.0050
     10 C          54.6937   95.3710   -4.2524 C.ar    1  UNL1       -0.0060
     11 C          54.5465   95.9665   -5.6212 C.ar    1  UNL1       -0.0220
     12 C          53.1802   96.2038   -6.1930 C.3     1  UNL1        0.0310
     13 C          55.7657   96.3248   -6.4182 C.ar    1  UNL1       -0.0030
     14 C          57.1319   96.0876   -5.8464 C.ar    1  UNL1        0.0139
     15 C          57.2791   95.4920   -4.4776 C.ar    1  UNL1        0.0451
     16 C          56.2071   94.5381   -2.3118 C.3     1  UNL1        0.0780
     17 C          56.9449   95.2883   -1.2428 C.3     1  UNL1        0.0187
     18 C          56.5970   96.7185   -0.9541 C.3     1  UNL1        0.0017
     19 C          58.0306   94.6082   -0.4625 C.3     1  UNL1        0.0017
     20 N          55.6164   93.1923   -2.0120 N.3     1  UNL1       -0.2939
     21 H          55.4728   93.1519   -1.0030 H       1  UNL1        0.1235
     22 C          56.3581   91.9457   -2.3940 C.3     1  UNL1        0.0861
     23 C          56.0359   91.2459   -3.6811 C.3     1  UNL1        0.0859
     24 C          56.7934   92.0276   -6.0401 C.3     1  UNL1        0.0859
     25 N          57.0393   91.2267   -4.7959 N.3     1  UNL1       -0.2952
     26 H          57.9216   91.5555   -4.4036 H       1  UNL1        0.1233
     27 C          63.4928   95.6705   -1.5437 C.3     1  UNL1        0.0811
     28 C          64.1254   96.7344   -2.3910 C.3     1  UNL1        0.0099
     29 C          63.6087   95.7342   -0.0496 C.3     1  UNL1        0.0377
     30 C          62.6507   94.9644    0.8105 C.ar    1  UNL1        0.0058
     31 C          61.3334   95.5708    1.1940 C.ar    1  UNL1       -0.0012
     32 C          60.3754   94.8011    2.0540 C.ar    1  UNL1        0.0112
     33 C          60.7347   93.4248    2.5305 C.ar    1  UNL1        0.0599
     34 CL         59.7767   92.6551    3.3906 Cl      1  UNL1       -0.0822
     35 C          62.0520   92.8185    2.1470 C.ar    1  UNL1        0.0407
     36 C          63.0100   93.5883    1.2870 C.ar    1  UNL1        0.1370
     37 F          64.3272   92.9819    0.9034 F       1  UNL1       -0.2045
@<TRIPOS>BOND
     1    24    25    1
     2    25    23    1
     3    23    22    1
     4    22    20    1
     5    16    20    1
     6    16     9    1
     7     9    10   ar
     8    10    11   ar
     9    11    12    1
    10    11    13   ar
    11    13    14   ar
    12    14    15   ar
    13    15     1    1
    14     1     2    1
    15     2     3    1
    16     3     4    1
    17     4     5   am
    18     5     6    2
    19     5    27    1
    20    27    28    1
    21    27    29    1
    22    29    30    1
    23    30    31   ar
    24    31    32   ar
    25    32    33   ar
    26    33    34    1
    27    33    35   ar
    28    35    36   ar
    29    36    37    1
    30     4     7    1
    31     7     8    1
    32    16    17    1
    33    17    18    1
    34    17    19    1
    35    15     9   ar
    36     8     1    1
    37    36    30   ar
    38    25    26    1
    39    20    21    1
