@<TRIPOS>MOLECULE
*****
 48 53 0 0 0
SMALL
GASTEIGER

@<TRIPOS>ATOM
      1 C          63.5392   87.8393   13.2002 C.ar    1  UNL1        0.0005
      2 C          64.0769   86.8914   14.2310 C.ar    1  UNL1       -0.0002
      3 C          63.8098   85.4205   14.1089 C.ar    1  UNL1        0.0038
      4 C          63.0052   84.8974   12.9561 C.ar    1  UNL1        0.0712
      5 C          62.4675   85.8453   11.9253 C.ar    1  UNL1        0.0012
      6 C          62.7346   87.3163   12.0474 C.ar    1  UNL1       -0.0041
      7 C          62.1970   88.2643   11.0167 C.3     1  UNL1        0.1012
      8 C          62.2631   89.7616   11.0762 C.3     1  UNL1        0.0263
      9 C          61.6058   90.3040    9.8418 C.3     1  UNL1        0.0260
     10 C          61.1336   89.1419    9.0193 C.3     1  UNL1        0.1232
     11 C          60.4355   88.7588    7.7481 C.3     1  UNL1        0.2107
     12 O          60.3695   87.2615    7.6886 O.3     1  UNL1       -0.4320
     13 C          61.0267   86.7191    8.9230 C.2     1  UNL1        0.4054
     14 O          61.1841   85.2691    9.2735 O.2     1  UNL1       -0.2262
     15 N          61.4989   87.8812    9.7454 N.am    1  UNL1       -0.2416
     16 C          59.8979   89.7068    6.7173 C.ar    1  UNL1        0.0189
     17 C          58.4190   89.9280    6.6007 C.ar    1  UNL1        0.0031
     18 C          57.8814   90.8759    5.5700 C.ar    1  UNL1        0.0712
     19 C          58.8228   91.6027    4.6559 C.ar    1  UNL1        0.0077
     20 C          60.3018   91.3815    4.7725 C.ar    1  UNL1        0.0712
     21 C          60.8394   90.4335    5.8032 C.ar    1  UNL1        0.0031
     22 C          56.4023   91.0971    5.4534 C.3     1  UNL1        0.4186
     23 F          54.9232   91.3181    5.3369 F       1  UNL1       -0.1659
     24 F          56.6522   92.4084    4.7695 F       1  UNL1       -0.1659
     25 F          56.1524   89.7856    6.1375 F       1  UNL1       -0.1659
     26 C          61.2432   92.1082    3.8584 C.3     1  UNL1        0.4186
     27 F          62.1846   92.8349    2.9443 F       1  UNL1       -0.1659
     28 F          62.2916   91.0651    4.1089 F       1  UNL1       -0.1659
     29 F          60.1947   93.1512    3.6079 F       1  UNL1       -0.1659
     30 C          63.2354   90.0833   14.4742 C.ar    1  UNL1        0.1386
     31 C          63.5025   91.5542   14.5963 C.ar    1  UNL1        0.0366
     32 C          64.3404   92.2523   13.5664 C.ar    1  UNL1       -0.0012
     33 C          64.9112   91.4794   12.4146 C.ar    1  UNL1       -0.0223
     34 C          64.6442   90.0085   12.2925 C.ar    1  UNL1       -0.0013
     35 C          63.8063   89.3103   13.3223 C.ar    1  UNL1        0.0334
     36 C          65.7492   92.1776   11.3848 C.3     1  UNL1        0.0231
     37 C          65.4642   93.0667   10.2107 C.3     1  UNL1        0.0099
     38 C          66.9341   93.1649    9.9284 C.3     1  UNL1        0.0372
     39 C          67.2191   92.2758   11.1024 C.3     1  UNL1        0.0099
     40 C          67.7720   93.8631    8.8985 C.2     1  UNL1        0.0500
     41 O          67.8682   95.3600    8.8991 O.co2   1  UNL1       -0.5492
     42 O          68.5136   93.0643    7.8681 O.co2   1  UNL1       -0.5492
     43 C          63.0080   88.9642   16.8079 C.3     1  UNL1        0.2525
     44 O          62.3975   89.3851   15.5040 O.3     1  UNL1       -0.4714
     45 C          62.7381   83.4265   12.8341 C.3     1  UNL1        0.4186
     46 F          62.4711   81.9555   12.7120 F       1  UNL1       -0.1659
     47 F          62.9221   83.5164   11.3481 F       1  UNL1       -0.1659
     48 F          62.5541   83.3365   14.3201 F       1  UNL1       -0.1659
@<TRIPOS>UNITY_ATOM_ATTR
41 1
charge -1
@<TRIPOS>BOND
     1    43    44    1
     2    44    30    1
     3    30    31   ar
     4    31    32   ar
     5    32    33   ar
     6    36    33    1
     7    36    37    1
     8    37    38    1
     9    38    40    1
    10    40    41   ar
    11    40    42   ar
    12    38    39    1
    13    33    34   ar
    14    34    35   ar
    15    35     1    1
    16     1     2   ar
    17     2     3   ar
    18     3     4   ar
    19     4    45    1
    20    45    46    1
    21    45    47    1
    22    45    48    1
    23     4     5   ar
    24     5     6   ar
    25     7     6    1
    26     7     8    1
    27     8     9    1
    28    10     9    1
    29    10    11    1
    30    11    16    1
    31    16    17   ar
    32    17    18   ar
    33    18    22    1
    34    22    23    1
    35    22    24    1
    36    22    25    1
    37    18    19   ar
    38    19    20   ar
    39    20    26    1
    40    26    27    1
    41    26    28    1
    42    26    29    1
    43    20    21   ar
    44    11    12    1
    45    12    13    1
    46    13    14    2
    47    13    15   am
    48    35    30   ar
    49     6     1   ar
    50    15     7    1
    51    39    36    1
    52    15    10    1
    53    21    16   ar
@<TRIPOS>MOLECULE
*****
 48 53 0 0 0
SMALL
GASTEIGER

@<TRIPOS>ATOM
      1 C          63.5481   87.8588   13.1932 C.ar    1  UNL1        0.0005
      2 C          64.0891   86.9127   14.2239 C.ar    1  UNL1       -0.0002
      3 C          63.8239   85.4413   14.1039 C.ar    1  UNL1        0.0038
      4 C          63.0177   84.9159   12.9532 C.ar    1  UNL1        0.0712
      5 C          62.4767   85.8620   11.9225 C.ar    1  UNL1        0.0012
      6 C          62.7419   87.3334   12.0426 C.ar    1  UNL1       -0.0041
      7 C          62.2009   88.2796   11.0119 C.3     1  UNL1        0.1012
      8 C          62.2609   89.7771   11.0720 C.3     1  UNL1        0.0263
      9 C          61.6020   90.3173    9.8375 C.3     1  UNL1        0.0260
     10 C          61.1348   89.1535    9.0144 C.3     1  UNL1        0.1232
     11 C          60.4389   88.7681    7.7427 C.3     1  UNL1        0.2107
     12 O          60.3789   87.2706    7.6827 O.3     1  UNL1       -0.4320
     13 C          61.0378   86.7304    8.9172 C.2     1  UNL1        0.4054
     14 O          61.2009   85.2809    9.2672 O.2     1  UNL1       -0.2262
     15 N          61.5050   87.8941    9.7403 N.am    1  UNL1       -0.2416
     16 C          59.8979   89.7142    6.7121 C.ar    1  UNL1        0.0189
     17 C          60.8364   90.4412    5.7952 C.ar    1  UNL1        0.0031
     18 C          60.2954   91.3873    4.7646 C.ar    1  UNL1        0.0712
     19 C          58.8159   91.6064    4.6508 C.ar    1  UNL1        0.0077
     20 C          57.8774   90.8795    5.5677 C.ar    1  UNL1        0.0712
     21 C          58.4184   89.9334    6.5983 C.ar    1  UNL1        0.0031
     22 C          61.2341   92.1142    3.8477 C.3     1  UNL1        0.4186
     23 F          62.1727   92.8412    2.9309 F       1  UNL1       -0.1659
     24 F          62.2854   91.0744    4.0996 F       1  UNL1       -0.1659
     25 F          60.1827   93.1541    3.5959 F       1  UNL1       -0.1659
     26 C          56.3979   91.0986    5.4539 C.3     1  UNL1        0.4186
     27 F          54.9183   91.3178    5.3401 F       1  UNL1       -0.1659
     28 F          56.6448   92.4095    4.7679 F       1  UNL1       -0.1659
     29 F          56.1509   89.7877    6.1399 F       1  UNL1       -0.1659
     30 C          63.2425   90.1039   14.4647 C.ar    1  UNL1        0.1386
     31 C          63.5077   91.5753   14.5848 C.ar    1  UNL1        0.0366
     32 C          64.3437   92.2733   13.5532 C.ar    1  UNL1       -0.0012
     33 C          64.9145   91.4998   12.4018 C.ar    1  UNL1       -0.0223
     34 C          64.6493   90.0283   12.2818 C.ar    1  UNL1       -0.0013
     35 C          63.8133   89.3303   13.3132 C.ar    1  UNL1        0.0334
     36 C          65.7505   92.1978   11.3703 C.3     1  UNL1        0.0231
     37 C          67.2069   92.2023   11.0114 C.3     1  UNL1        0.0099
     38 C          66.9327   93.1849    9.9116 C.3     1  UNL1        0.0372
     39 C          65.4763   93.1803   10.2706 C.3     1  UNL1        0.0099
     40 C          67.7688   93.8829    8.8802 C.2     1  UNL1        0.0500
     41 O          67.8383   95.3811    8.8595 O.co2   1  UNL1       -0.5492
     42 O          68.5354   93.0826    7.8694 O.co2   1  UNL1       -0.5492
     43 C          63.0127   89.0089   16.8096 C.3     1  UNL1        0.2525
     44 O          62.4065   89.4058   15.4962 O.3     1  UNL1       -0.4714
     45 C          62.7525   83.4444   12.8332 C.3     1  UNL1        0.4186
     46 F          62.4873   81.9730   12.7132 F       1  UNL1       -0.1659
     47 F          62.2949   83.4104   14.2613 F       1  UNL1       -0.1659
     48 F          63.2102   83.4784   11.4051 F       1  UNL1       -0.1659
@<TRIPOS>UNITY_ATOM_ATTR
41 1
charge -1
@<TRIPOS>BOND
     1    43    44    1
     2    44    30    1
     3    30    31   ar
     4    31    32   ar
     5    32    33   ar
     6    36    33    1
     7    36    37    1
     8    37    38    1
     9    38    40    1
    10    40    41   ar
    11    40    42   ar
    12    38    39    1
    13    33    34   ar
    14    34    35   ar
    15    35     1    1
    16     1     2   ar
    17     2     3   ar
    18     3     4   ar
    19     4    45    1
    20    45    46    1
    21    45    47    1
    22    45    48    1
    23     4     5   ar
    24     5     6   ar
    25     7     6    1
    26     7     8    1
    27     8     9    1
    28    10     9    1
    29    10    11    1
    30    11    16    1
    31    16    17   ar
    32    17    18   ar
    33    18    22    1
    34    22    23    1
    35    22    24    1
    36    22    25    1
    37    18    19   ar
    38    19    20   ar
    39    20    26    1
    40    26    27    1
    41    26    28    1
    42    26    29    1
    43    20    21   ar
    44    11    12    1
    45    12    13    1
    46    13    14    2
    47    13    15   am
    48    35    30   ar
    49     6     1   ar
    50    15     7    1
    51    39    36    1
    52    15    10    1
    53    21    16   ar
@<TRIPOS>MOLECULE
*****
 48 53 0 0 0
SMALL
GASTEIGER

@<TRIPOS>ATOM
      1 C          63.1753   87.2363   12.5409 C.ar    1  UNL1        0.0005
      2 C          63.6631   86.1970   13.5062 C.ar    1  UNL1       -0.0002
      3 C          63.6207   84.7455   13.1302 C.ar    1  UNL1        0.0038
      4 C          63.0905   84.3335   11.7889 C.ar    1  UNL1        0.0712
      5 C          62.6027   85.3728   10.8236 C.ar    1  UNL1        0.0012
      6 C          62.6451   86.8243   11.1996 C.ar    1  UNL1       -0.0041
      7 C          62.1573   87.8637   10.2344 C.3     1  UNL1        0.1012
      8 C          62.5518   89.3108   10.2232 C.3     1  UNL1        0.0263
      9 C          61.8277   89.9799    9.0927 C.3     1  UNL1        0.0260
     10 C          60.9856   88.9463    8.4053 C.3     1  UNL1        0.1232
     11 C          60.0176   88.7211    7.2818 C.3     1  UNL1        0.2107
     12 O          59.6231   87.2740    7.2930 O.3     1  UNL1       -0.4320
     13 C          60.3472   86.6048    8.4234 C.2     1  UNL1        0.4054
     14 O          60.2469   85.1564    8.8002 O.2     1  UNL1       -0.2262
     15 N          61.1893   87.6384    9.1109 N.am    1  UNL1       -0.2416
     16 C          59.5298   89.7605    6.3165 C.ar    1  UNL1        0.0189
     17 C          60.5102   90.5160    5.4691 C.ar    1  UNL1        0.0031
     18 C          60.0224   91.5554    4.5039 C.ar    1  UNL1        0.0712
     19 C          58.5542   91.8393    4.3861 C.ar    1  UNL1        0.0077
     20 C          57.5739   91.0838    5.2335 C.ar    1  UNL1        0.0712
     21 C          58.0617   90.0444    6.1987 C.ar    1  UNL1        0.0031
     22 C          61.0029   92.3108    3.6565 C.3     1  UNL1        0.4186
     23 F          61.9833   93.0663    2.8091 F       1  UNL1       -0.1659
     24 F          62.0638   91.3028    3.9854 F       1  UNL1       -0.1659
     25 F          59.9418   93.3189    3.3276 F       1  UNL1       -0.1659
     26 C          56.1057   91.3678    5.1156 C.3     1  UNL1        0.4186
     27 F          54.6376   91.6517    4.9978 F       1  UNL1       -0.1659
     28 F          55.8027   90.1284    5.9043 F       1  UNL1       -0.1659
     29 F          56.4087   92.6072    4.3270 F       1  UNL1       -0.1659
     30 C          61.9571   89.5008   12.9132 C.ar    1  UNL1        0.1386
     31 C          61.9995   90.9523   13.2892 C.ar    1  UNL1        0.0366
     32 C          63.3026   91.5908   13.6691 C.ar    1  UNL1       -0.0012
     33 C          64.5632   90.7779   13.6728 C.ar    1  UNL1       -0.0223
     34 C          64.5208   89.3264   13.2968 C.ar    1  UNL1       -0.0013
     35 C          63.2177   88.6878   12.9169 C.ar    1  UNL1        0.0334
     36 C          65.8662   91.4165   14.0527 C.3     1  UNL1        0.0231
     37 C          67.1459   90.9314   14.6666 C.3     1  UNL1        0.0099
     38 C          67.7090   92.3196   14.5898 C.3     1  UNL1        0.0372
     39 C          66.4293   92.8047   13.9758 C.3     1  UNL1        0.0099
     40 C          69.0121   92.9581   14.9697 C.2     1  UNL1        0.0500
     41 O          70.2596   92.6298   14.2042 O.co2   1  UNL1       -0.5492
     42 O          69.0677   93.9249   16.1152 O.co2   1  UNL1       -0.5492
     43 C          59.4873   89.7173   12.1364 C.3     1  UNL1        0.2525
     44 O          60.6540   88.8622   12.5334 O.3     1  UNL1       -0.4714
     45 C          63.0481   82.8820   11.4128 C.3     1  UNL1        0.4186
     46 F          63.0056   81.4305   11.0368 F       1  UNL1       -0.1659
     47 F          62.1418   82.6071   12.5761 F       1  UNL1       -0.1659
     48 F          63.9544   83.1568   10.2495 F       1  UNL1       -0.1659
@<TRIPOS>UNITY_ATOM_ATTR
41 1
charge -1
@<TRIPOS>BOND
     1    43    44    1
     2    44    30    1
     3    30    31   ar
     4    31    32   ar
     5    32    33   ar
     6    36    33    1
     7    36    37    1
     8    37    38    1
     9    38    40    1
    10    40    41   ar
    11    40    42   ar
    12    38    39    1
    13    33    34   ar
    14    34    35   ar
    15    35     1    1
    16     1     2   ar
    17     2     3   ar
    18     3     4   ar
    19     4    45    1
    20    45    46    1
    21    45    47    1
    22    45    48    1
    23     4     5   ar
    24     5     6   ar
    25     7     6    1
    26     7     8    1
    27     8     9    1
    28    10     9    1
    29    10    11    1
    30    11    16    1
    31    16    17   ar
    32    17    18   ar
    33    18    22    1
    34    22    23    1
    35    22    24    1
    36    22    25    1
    37    18    19   ar
    38    19    20   ar
    39    20    26    1
    40    26    27    1
    41    26    28    1
    42    26    29    1
    43    20    21   ar
    44    11    12    1
    45    12    13    1
    46    13    14    2
    47    13    15   am
    48    35    30   ar
    49     6     1   ar
    50    15     7    1
    51    39    36    1
    52    15    10    1
    53    21    16   ar
@<TRIPOS>MOLECULE
*****
 48 53 0 0 0
SMALL
GASTEIGER

@<TRIPOS>ATOM
      1 C          63.1701   87.2284   12.5996 C.ar    1  UNL1        0.0005
      2 C          63.6196   86.1853   13.5794 C.ar    1  UNL1       -0.0002
      3 C          63.5724   84.7338   13.2040 C.ar    1  UNL1        0.0038
      4 C          63.0758   84.3255   11.8487 C.ar    1  UNL1        0.0712
      5 C          62.6263   85.3686   10.8689 C.ar    1  UNL1        0.0012
      6 C          62.6735   86.8201   11.2444 C.ar    1  UNL1       -0.0041
      7 C          62.2240   87.8632   10.2647 C.3     1  UNL1        0.1012
      8 C          62.6782   89.2924   10.2281 C.3     1  UNL1        0.0263
      9 C          61.9763   89.9727    9.0904 C.3     1  UNL1        0.0260
     10 C          61.0884   88.9641    8.4238 C.3     1  UNL1        0.1232
     11 C          60.1059   88.7612    7.3087 C.3     1  UNL1        0.2107
     12 O          59.6518   87.3321    7.3453 O.3     1  UNL1       -0.4320
     13 C          60.3536   86.6517    8.4830 C.2     1  UNL1        0.4054
     14 O          60.1953   85.2150    8.8838 O.2     1  UNL1       -0.2262
     15 N          61.2415   87.6604    9.1496 N.am    1  UNL1       -0.2416
     16 C          59.6564   89.8044    6.3289 C.ar    1  UNL1        0.0189
     17 C          58.1987   90.1331    6.1995 C.ar    1  UNL1        0.0031
     18 C          57.7492   91.1763    5.2198 C.ar    1  UNL1        0.0712
     19 C          58.7575   91.8907    4.3695 C.ar    1  UNL1        0.0077
     20 C          60.2153   91.5619    4.4990 C.ar    1  UNL1        0.0712
     21 C          60.6648   90.5188    5.4787 C.ar    1  UNL1        0.0031
     22 C          56.2913   91.5050    5.0904 C.3     1  UNL1        0.4186
     23 F          54.8335   91.8336    4.9610 F       1  UNL1       -0.1659
     24 F          56.6329   92.9566    4.9291 F       1  UNL1       -0.1659
     25 F          55.9498   90.0532    5.2516 F       1  UNL1       -0.1659
     26 C          61.2236   92.2763    3.6487 C.3     1  UNL1        0.4186
     27 F          62.2319   92.9907    2.7985 F       1  UNL1       -0.1659
     28 F          60.1814   93.2817    3.2575 F       1  UNL1       -0.1659
     29 F          62.2658   91.2709    4.0400 F       1  UNL1       -0.1659
     30 C          62.0029   89.5415   12.7935 C.ar    1  UNL1        0.1386
     31 C          62.0500   90.9930   13.1690 C.ar    1  UNL1        0.0366
     32 C          63.3117   91.5829   13.7262 C.ar    1  UNL1       -0.0012
     33 C          64.5260   90.7213   13.9078 C.ar    1  UNL1       -0.0223
     34 C          64.4788   89.2698   13.5323 C.ar    1  UNL1       -0.0013
     35 C          63.2173   88.6799   12.9751 C.ar    1  UNL1        0.0334
     36 C          65.7876   91.3112   14.4650 C.3     1  UNL1        0.0231
     37 C          67.2279   91.3233   14.0463 C.3     1  UNL1        0.0099
     38 C          67.5717   92.1455   15.2529 C.3     1  UNL1        0.0372
     39 C          66.1314   92.1334   15.6715 C.3     1  UNL1        0.0099
     40 C          68.8333   92.7355   15.8100 C.2     1  UNL1        0.0500
     41 O          69.6583   91.9539   16.7890 O.co2   1  UNL1       -0.5492
     42 O          69.2700   94.1070   15.3880 O.co2   1  UNL1       -0.5492
     43 C          59.5591   89.8328   11.9610 C.3     1  UNL1        0.2525
     44 O          60.7413   88.9516   12.2363 O.3     1  UNL1       -0.4714
     45 C          63.0286   82.8741   11.4732 C.3     1  UNL1        0.4186
     46 F          62.9814   81.4226   11.0977 F       1  UNL1       -0.1659
     47 F          63.7993   83.1728   10.2216 F       1  UNL1       -0.1659
     48 F          62.2578   82.5752   12.7250 F       1  UNL1       -0.1659
@<TRIPOS>UNITY_ATOM_ATTR
41 1
charge -1
@<TRIPOS>BOND
     1    43    44    1
     2    44    30    1
     3    30    31   ar
     4    31    32   ar
     5    32    33   ar
     6    36    33    1
     7    36    37    1
     8    37    38    1
     9    38    40    1
    10    40    41   ar
    11    40    42   ar
    12    38    39    1
    13    33    34   ar
    14    34    35   ar
    15    35     1    1
    16     1     2   ar
    17     2     3   ar
    18     3     4   ar
    19     4    45    1
    20    45    46    1
    21    45    47    1
    22    45    48    1
    23     4     5   ar
    24     5     6   ar
    25     7     6    1
    26     7     8    1
    27     8     9    1
    28    10     9    1
    29    10    11    1
    30    11    16    1
    31    16    17   ar
    32    17    18   ar
    33    18    22    1
    34    22    23    1
    35    22    24    1
    36    22    25    1
    37    18    19   ar
    38    19    20   ar
    39    20    26    1
    40    26    27    1
    41    26    28    1
    42    26    29    1
    43    20    21   ar
    44    11    12    1
    45    12    13    1
    46    13    14    2
    47    13    15   am
    48    35    30   ar
    49     6     1   ar
    50    15     7    1
    51    39    36    1
    52    15    10    1
    53    21    16   ar
