@<TRIPOS>MOLECULE
*****
 37 41 0 0 0
SMALL
GASTEIGER

@<TRIPOS>ATOM
      1 C          64.0718   84.5607   16.0968 C.3     1  UNL1        0.0291
      2 C          63.7204   84.8490   14.6674 C.3     1  UNL1        0.1084
      3 N          63.9317   83.3661   14.5895 N.2     1  UNL1       -0.2508
      4 C          63.7606   82.6517   13.2817 C.2     1  UNL1        0.1485
      5 N          63.9720   81.1688   13.2038 N.pl3   1  UNL1       -0.3380
      6 S          63.3781   83.4203   12.0517 S.3     1  UNL1       -0.0736
      7 C          63.1668   84.9034   12.1295 C.3     1  UNL1        0.1165
      8 C          62.9554   86.3863   12.2074 C.3     1  UNL1        0.0227
      9 C          63.3379   85.6177   13.4374 C.3     1  UNL1        0.0438
     10 H          64.2230   80.6643   14.0111 H       1  UNL1        0.1442
     11 H          63.8597   80.6999   12.3455 H       1  UNL1        0.1442
     12 C          62.8472   84.9347   10.6643 C.2     1  UNL1        0.2347
     13 O          63.5836   84.0350    9.7166 O.2     1  UNL1       -0.2740
     14 N          61.7911   85.8658   10.1468 N.am    1  UNL1       -0.2737
     15 C          61.0546   86.7655   11.0945 C.3     1  UNL1        0.1255
     16 C          59.9985   87.6965   10.5770 C.3     1  UNL1        0.1636
     17 O          59.6789   87.7279    9.1118 O.3     1  UNL1       -0.3501
     18 C          60.4154   86.8282    8.1641 C.3     1  UNL1        0.1636
     19 C          61.4715   85.8971    8.6816 C.3     1  UNL1        0.1255
     20 C          63.6311   86.2319   15.2417 C.ar    1  UNL1        0.0253
     21 C          64.2861   87.3813   14.5348 C.ar    1  UNL1       -0.0002
     22 C          64.1968   88.7642   15.1091 C.ar    1  UNL1        0.0022
     23 C          63.4524   88.9975   16.3903 C.ar    1  UNL1        0.0024
     24 C          62.7974   87.8481   17.0972 C.ar    1  UNL1        0.0294
     25 C          62.8867   86.4653   16.5229 C.ar    1  UNL1        0.1379
     26 F          62.2317   85.3159   17.2299 F       1  UNL1       -0.2044
     27 C          64.8518   89.9136   14.4022 C.2     1  UNL1        0.0312
     28 C          64.1237   90.6331   13.3058 C.2     1  UNL1        0.1576
     29 F          62.7404   90.2030   12.9163 F       1  UNL1       -0.2026
     30 C          64.7787   91.7825   12.5989 C.ar    1  UNL1        0.1087
     31 C          64.6137   91.9437   11.1168 C.ar    1  UNL1        0.0221
     32 C          65.2687   93.0931   10.4099 C.ar    1  UNL1        0.0135
     33 C          66.0887   94.0814   11.1851 C.ar    1  UNL1        0.0876
     34 C          66.2538   93.9201   12.6673 C.ar    1  UNL1        0.1091
     35 N          65.5988   92.7707   13.3742 N.ar    1  UNL1       -0.2409
     36 C          66.7437   95.2308   10.4782 C.1     1  UNL1        0.1020
     37 N          67.3988   96.3802    9.7712 N.1     1  UNL1       -0.1908
@<TRIPOS>BOND
     1     2     1    1
     2     2    20    1
     3    20    21   ar
     4    21    22   ar
     5    22    27    1
     6    27    28    2
     7    28    29    1
     8    28    30    1
     9    30    31   ar
    10    31    32   ar
    11    32    33   ar
    12    33    36    1
    13    36    37    3
    14    33    34   ar
    15    34    35   ar
    16    22    23   ar
    17    23    24   ar
    18    24    25   ar
    19    25    26    1
    20     2     3    1
    21     3     4    2
    22     4     5    1
    23     4     6    1
    24     6     7    1
    25     7    12    1
    26    12    13    2
    27    12    14   am
    28    14    15    1
    29    15    16    1
    30    16    17    1
    31    17    18    1
    32    18    19    1
    33     7     8    1
    34     9     8    1
    35     9     2    1
    36    25    20   ar
    37     9     7    1
    38    35    30   ar
    39    19    14    1
    40     5    10    1
    41     5    11    1
@<TRIPOS>MOLECULE
*****
 37 41 0 0 0
SMALL
GASTEIGER

@<TRIPOS>ATOM
      1 C          65.2814   90.2308   14.1868 C.3     1  UNL1        0.0291
      2 C          64.1066   90.0145   13.2797 C.3     1  UNL1        0.1084
      3 N          64.7133   91.2257   12.6357 N.2     1  UNL1       -0.2508
      4 C          64.0761   91.8260   11.4176 C.2     1  UNL1        0.1485
      5 N          64.6828   93.0372   10.7736 N.pl3   1  UNL1       -0.3380
      6 S          62.8323   91.2151   10.8436 S.3     1  UNL1       -0.0736
      7 C          62.2255   90.0038   11.4876 C.3     1  UNL1        0.1165
      8 C          61.6188   88.7926   12.1316 C.3     1  UNL1        0.0227
      9 C          62.8627   89.4035   12.7057 C.3     1  UNL1        0.0438
     10 H          65.4992   93.4382   11.1503 H       1  UNL1        0.1442
     11 H          64.2647   93.4312    9.9741 H       1  UNL1        0.1442
     12 C          61.1395   89.9976   10.4530 C.2     1  UNL1        0.2347
     13 O          60.1995   91.1616   10.3454 O.2     1  UNL1       -0.2740
     14 N          60.9935   88.8275    9.5259 N.am    1  UNL1       -0.2737
     15 C          61.9335   87.6636    9.6334 C.3     1  UNL1        0.1255
     16 C          61.7875   86.4934    8.7063 C.3     1  UNL1        0.1636
     17 O          60.7015   86.4873    7.6717 O.3     1  UNL1       -0.3501
     18 C          59.7615   87.6513    7.5641 C.3     1  UNL1        0.1636
     19 C          59.9075   88.8214    8.4912 C.3     1  UNL1        0.1255
     20 C          63.9079   88.8784   14.2388 C.ar    1  UNL1        0.0253
     21 C          63.9120   87.4646   13.7379 C.ar    1  UNL1       -0.0002
     22 C          63.7133   86.3284   14.6970 C.ar    1  UNL1        0.0022
     23 C          63.5105   86.6063   16.1570 C.ar    1  UNL1        0.0024
     24 C          63.5064   88.0201   16.6579 C.ar    1  UNL1        0.0294
     25 C          63.7051   89.1562   15.6988 C.ar    1  UNL1        0.1379
     26 F          63.7010   90.5700   16.1999 F       1  UNL1       -0.2044
     27 C          63.7174   84.9146   14.1961 C.2     1  UNL1        0.0312
     28 C          62.8626   84.5315   13.0245 C.2     1  UNL1        0.1576
     29 F          62.0037   85.5623   12.3539 F       1  UNL1       -0.2026
     30 C          62.8667   83.1176   12.5236 C.ar    1  UNL1        0.1087
     31 C          63.2872   82.8224   11.1144 C.ar    1  UNL1        0.0221
     32 C          63.2913   81.4086   10.6134 C.ar    1  UNL1        0.0135
     33 C          62.8749   80.2899   11.5217 C.ar    1  UNL1        0.0876
     34 C          62.4543   80.5850   12.9310 C.ar    1  UNL1        0.1091
     35 N          62.4502   81.9989   13.4320 N.ar    1  UNL1       -0.2409
     36 C          62.8789   78.8760   11.0208 C.1     1  UNL1        0.1020
     37 N          62.8831   77.4621   10.5198 N.1     1  UNL1       -0.1908
@<TRIPOS>BOND
     1     2     1    1
     2     2    20    1
     3    20    21   ar
     4    21    22   ar
     5    22    27    1
     6    27    28    2
     7    28    29    1
     8    28    30    1
     9    30    31   ar
    10    31    32   ar
    11    32    33   ar
    12    33    36    1
    13    36    37    3
    14    33    34   ar
    15    34    35   ar
    16    22    23   ar
    17    23    24   ar
    18    24    25   ar
    19    25    26    1
    20     2     3    1
    21     3     4    2
    22     4     5    1
    23     4     6    1
    24     6     7    1
    25     7    12    1
    26    12    13    2
    27    12    14   am
    28    14    15    1
    29    15    16    1
    30    16    17    1
    31    17    18    1
    32    18    19    1
    33     7     8    1
    34     9     8    1
    35     9     2    1
    36    25    20   ar
    37     9     7    1
    38    35    30   ar
    39    19    14    1
    40     5    10    1
    41     5    11    1
@<TRIPOS>MOLECULE
*****
 37 41 0 0 0
SMALL
GASTEIGER

@<TRIPOS>ATOM
      1 C          64.0078   89.9079   14.5575 C.3     1  UNL1        0.0291
      2 C          64.7396   90.6330   13.4673 C.3     1  UNL1        0.1084
      3 N          65.6279   90.9510   14.6333 N.2     1  UNL1       -0.2508
      4 C          66.8513   91.7962   14.4357 C.2     1  UNL1        0.1485
      5 N          67.7396   92.1142   15.6017 N.pl3   1  UNL1       -0.3380
      6 S          67.1863   92.3234   13.0719 S.3     1  UNL1       -0.0736
      7 C          66.2979   92.0054   11.9058 C.3     1  UNL1        0.1165
      8 C          65.4096   91.6874   10.7398 C.3     1  UNL1        0.0227
      9 C          65.0746   91.1602   12.1035 C.3     1  UNL1        0.0438
     10 H          67.5197   91.7682   16.4968 H       1  UNL1        0.1442
     11 H          68.5425   92.6690   15.4719 H       1  UNL1        0.1442
     12 C          67.1976   92.7977   11.0043 C.2     1  UNL1        0.2347
     13 O          68.5274   92.2391   10.5925 O.2     1  UNL1       -0.2740
     14 N          66.7675   94.1487   10.5145 N.am    1  UNL1       -0.2737
     15 C          65.4377   94.7073   10.9263 C.3     1  UNL1        0.1255
     16 C          65.0076   96.0583   10.4365 C.3     1  UNL1        0.1636
     17 O          65.9073   96.8506    9.5350 O.3     1  UNL1       -0.3501
     18 C          67.2371   96.2920    9.1232 C.3     1  UNL1        0.1636
     19 C          67.6672   94.9410    9.6130 C.3     1  UNL1        0.1255
     20 C          63.5971   90.0631   12.6799 C.ar    1  UNL1        0.0253
     21 C          63.5566   88.5957   12.3719 C.ar    1  UNL1       -0.0002
     22 C          62.4141   88.0258   11.5844 C.ar    1  UNL1        0.0022
     23 C          61.3121   88.9235   11.1051 C.ar    1  UNL1        0.0024
     24 C          61.3526   90.3909   11.4131 C.ar    1  UNL1        0.0294
     25 C          62.4951   90.9608   12.2005 C.ar    1  UNL1        0.1379
     26 F          62.5355   92.4282   12.5085 F       1  UNL1       -0.2044
     27 C          62.3736   86.5584   11.2764 C.2     1  UNL1        0.0312
     28 C          63.0077   85.5768   12.2168 C.2     1  UNL1        0.1576
     29 F          63.6824   86.0628   13.4653 F       1  UNL1       -0.2026
     30 C          62.9672   84.1094   11.9088 C.ar    1  UNL1        0.1087
     31 C          63.5135   83.6008   10.6076 C.ar    1  UNL1        0.0221
     32 C          63.4730   82.1334   10.2996 C.ar    1  UNL1        0.0135
     33 C          62.8863   81.1744   11.2927 C.ar    1  UNL1        0.0876
     34 C          62.3400   81.6830   12.5939 C.ar    1  UNL1        0.1091
     35 N          62.3805   83.1505   12.9019 N.ar    1  UNL1       -0.2409
     36 C          62.8458   79.7070   10.9847 C.1     1  UNL1        0.1020
     37 N          62.8053   78.2395   10.6766 N.1     1  UNL1       -0.1908
@<TRIPOS>BOND
     1     2     1    1
     2     2    20    1
     3    20    21   ar
     4    21    22   ar
     5    22    27    1
     6    27    28    2
     7    28    29    1
     8    28    30    1
     9    30    31   ar
    10    31    32   ar
    11    32    33   ar
    12    33    36    1
    13    36    37    3
    14    33    34   ar
    15    34    35   ar
    16    22    23   ar
    17    23    24   ar
    18    24    25   ar
    19    25    26    1
    20     2     3    1
    21     3     4    2
    22     4     5    1
    23     4     6    1
    24     6     7    1
    25     7    12    1
    26    12    13    2
    27    12    14   am
    28    14    15    1
    29    15    16    1
    30    16    17    1
    31    17    18    1
    32    18    19    1
    33     7     8    1
    34     9     8    1
    35     9     2    1
    36    25    20   ar
    37     9     7    1
    38    35    30   ar
    39    19    14    1
    40     5    10    1
    41     5    11    1
